lig
  Mrv15b2306172516493D          

 52 54  0  0  1  0            999 V2000
    2.8350   -7.9856   -4.2825 N   0  0  0  0  0  0  0  0  0  0  0  0
    4.0660   -8.2620   -3.7788 C   0  0  0  0  0  0  0  0  0  0  0  0
    5.1566   -8.1885   -4.5538 N   0  0  1  0  0  0  0  0  0  0  0  0
    4.1658   -8.6168   -2.4631 N   0  0  0  0  0  0  0  0  0  0  0  0
    3.0751   -8.7491   -1.6295 C   0  0  0  0  0  0  0  0  0  0  0  0
    3.2311   -9.0815   -0.4346 O   0  0  0  0  0  0  0  0  0  0  0  0
    1.7769   -8.5050   -2.1397 C   0  0  0  0  0  0  0  0  0  0  0  0
    0.6172   -8.5581   -1.4488 N   0  3  0  0  0  0  0  0  0  0  0  0
   -0.5313   -8.1872   -1.9348 C   0  0  0  0  0  0  0  0  0  0  0  0
   -0.7133   -7.7067   -3.3026 C   0  0  2  0  0  0  0  0  0  0  0  0
    0.5143   -7.7446   -4.0308 N   0  0  0  0  0  0  0  0  0  0  0  0
    1.7266   -8.0897   -3.4985 C   0  0  0  0  0  0  0  0  0  0  0  0
   -1.6785   -8.2537   -1.0837 C   0  0  1  0  0  0  0  0  0  0  0  0
   -1.8259   -7.0309   -0.3972 N   0  0  1  0  0  0  0  0  0  0  0  0
   -5.1310   -7.2223    2.0551 C   0  0  0  0  0  0  0  0  0  0  0  0
   -4.3655   -6.0630    2.0098 C   0  0  0  0  0  0  0  0  0  0  0  0
   -3.2504   -5.9985    1.1824 C   0  0  0  0  0  0  0  0  0  0  0  0
   -2.9008   -7.0932    0.4004 C   0  0  0  0  0  0  0  0  0  0  0  0
   -3.6664   -8.2525    0.4458 C   0  0  0  0  0  0  0  0  0  0  0  0
   -4.7815   -8.3170    1.2731 C   0  0  0  0  0  0  0  0  0  0  0  0
   -6.2461   -7.2869    2.8825 C   0  0  0  0  0  0  0  0  0  0  0  0
   -6.5604   -6.3024    3.5857 O   0  0  0  0  0  0  0  0  0  0  0  0
   -6.9841   -8.4045    2.9262 N   0  0  0  0  0  0  0  0  0  0  0  0
   -8.1153   -8.4700    3.7654 C   0  0  1  0  0  0  0  0  0  0  0  0
   -9.3629   -8.7338    2.9201 C   0  0  2  0  0  0  0  0  0  0  0  0
   -9.5431   -7.5998    1.9090 C   0  0  1  0  0  0  0  0  0  0  0  0
  -10.7337   -7.8515    1.1023 C   0  0  0  0  0  0  0  0  0  0  0  0
  -11.0664   -7.0422    0.2096 O   0  0  0  0  0  0  0  0  0  0  0  0
  -11.4752   -8.9583    1.3205 O   0  5  0  0  0  0  0  0  0  0  0  0
   -7.9434   -9.5522    4.7303 C   0  0  0  0  0  0  0  0  0  0  0  0
   -6.9785   -9.5338    5.5248 O   0  0  0  0  0  0  0  0  0  0  0  0
   -8.8265  -10.5727    4.7644 O   0  5  0  0  0  0  0  0  0  0  0  0
    5.9410   -8.4172   -4.0310 H   0  0  0  0  0  0  0  0  0  0  0  0
    5.0695   -8.8089   -5.2944 H   0  0  0  0  0  0  0  0  0  0  0  0
   -1.0916   -6.6846   -3.2813 H   0  0  0  0  0  0  0  0  0  0  0  0
   -2.5674   -8.4416   -1.6859 H   0  0  0  0  0  0  0  0  0  0  0  0
   -1.5502   -9.0616   -0.3633 H   0  0  0  0  0  0  0  0  0  0  0  0
   -1.0349   -6.8637    0.1388 H   0  0  0  0  0  0  0  0  0  0  0  0
   -4.6220   -5.2597    2.5836 H   0  0  0  0  0  0  0  0  0  0  0  0
   -2.6886   -5.1478    1.1491 H   0  0  0  0  0  0  0  0  0  0  0  0
   -3.4099   -9.0558   -0.1281 H   0  0  0  0  0  0  0  0  0  0  0  0
   -5.3433   -9.1678    1.3064 H   0  0  0  0  0  0  0  0  0  0  0  0
   -6.7402   -9.1684    2.3805 H   0  0  0  0  0  0  0  0  0  0  0  0
   -8.2292   -7.5248    4.2961 H   0  0  0  0  0  0  0  0  0  0  0  0
  -10.2374   -8.7845    3.5689 H   0  0  0  0  0  0  0  0  0  0  0  0
   -9.2490   -9.6791    2.3894 H   0  0  0  0  0  0  0  0  0  0  0  0
   -9.6570   -6.6545    2.4397 H   0  0  0  0  0  0  0  0  0  0  0  0
   -8.6687   -7.5491    1.2602 H   0  0  0  0  0  0  0  0  0  0  0  0
    5.0882   -8.7892   -2.0895 H   0  0  0  0  0  0  0  0  0  0  0  0
    0.6083   -8.9003   -0.4986 H   0  0  0  0  0  0  0  0  0  0  0  0
   -1.5621   -8.1211   -3.8465 H   0  0  0  0  0  0  0  0  0  0  0  0
    0.5263   -7.5056   -5.0120 H   0  0  0  0  0  0  0  0  0  0  0  0
  1 12  1  0  0  0  0
  2  1  2  0  0  0  0
  3 34  1  0  0  0  0
  3  2  1  0  0  0  0
  4  2  1  0  0  0  0
  4  5  1  0  0  0  0
  5  7  1  0  0  0  0
  6  5  2  0  0  0  0
  7 12  2  0  0  0  0
  7  8  1  0  0  0  0
  8  9  2  0  0  0  0
  9 10  1  0  0  0  0
  9 13  1  0  0  0  0
 10 35  1  0  0  0  0
 11 10  1  0  0  0  0
 12 11  1  0  0  0  0
 13 36  1  0  0  0  0
 14 13  1  0  0  0  0
 14 38  1  0  0  0  0
 15 20  2  0  0  0  0
 15 16  1  0  0  0  0
 16 17  2  0  0  0  0
 17 18  1  0  0  0  0
 17 40  1  0  0  0  0
 18 14  1  0  0  0  0
 19 41  1  0  0  0  0
 19 18  2  0  0  0  0
 20 19  1  0  0  0  0
 21 15  1  0  0  0  0
 22 21  2  0  0  0  0
 23 43  1  0  0  0  0
 23 21  1  0  0  0  0
 24 44  1  0  0  0  0
 24 23  1  0  0  0  0
 25 24  1  0  0  0  0
 25 46  1  0  0  0  0
 26 47  1  0  0  0  0
 26 25  1  0  0  0  0
 27 26  1  0  0  0  0
 28 27  2  0  0  0  0
 29 27  1  0  0  0  0
 30 24  1  0  0  0  0
 30 31  2  0  0  0  0
 32 30  1  0  0  0  0
 33  3  1  0  0  0  0
 37 13  1  0  0  0  0
 39 16  1  0  0  0  0
 42 20  1  0  0  0  0
 45 25  1  0  0  0  0
 48 26  1  0  0  0  0
  4 49  1  0  0  0  0
  8 50  1  0  0  0  0
 10 51  1  0  0  0  0
 11 52  1  0  0  0  0
M  CHG  3   8   1  29  -1  32  -1
M  END
