lig
  Mrv15b2306172516512D          

 52 54  0  0  1  0            999 V2000
   -6.0813   -3.9934    0.0000 N   0  0  0  0  0  0  0  0  0  0  0  0
   -6.0813   -4.8184    0.0000 C   0  0  0  0  0  0  0  0  0  0  0  0
   -6.7957   -5.2309    0.0000 N   0  0  0  0  0  0  0  0  0  0  0  0
   -5.3668   -5.2309    0.0000 N   0  0  0  0  0  0  0  0  0  0  0  0
   -4.6523   -4.8184    0.0000 C   0  0  0  0  0  0  0  0  0  0  0  0
   -3.9379   -5.2309    0.0000 O   0  0  0  0  0  0  0  0  0  0  0  0
   -4.6523   -3.9934    0.0000 C   0  0  0  0  0  0  0  0  0  0  0  0
   -3.9379   -3.5809    0.0000 N   0  0  0  0  0  0  0  0  0  0  0  0
   -3.9379   -2.7559    0.0000 C   0  0  2  0  0  0  0  0  0  0  0  0
   -4.6523   -2.3434    0.0000 C   0  0  0  0  0  0  0  0  0  0  0  0
   -5.3668   -2.7559    0.0000 N   0  0  0  0  0  0  0  0  0  0  0  0
   -5.3668   -3.5809    0.0000 C   0  0  0  0  0  0  0  0  0  0  0  0
   -3.2234   -2.3434    0.0000 C   0  0  0  0  0  0  0  0  0  0  0  0
   -3.2234   -1.5184    0.0000 N   0  0  0  0  0  0  0  0  0  0  0  0
   -1.0800   -0.2809    0.0000 C   0  0  0  0  0  0  0  0  0  0  0  0
   -1.7944    0.1316    0.0000 C   0  0  0  0  0  0  0  0  0  0  0  0
   -2.5089   -0.2809    0.0000 C   0  0  0  0  0  0  0  0  0  0  0  0
   -2.5089   -1.1059    0.0000 C   0  0  0  0  0  0  0  0  0  0  0  0
   -1.7944   -1.5184    0.0000 C   0  0  0  0  0  0  0  0  0  0  0  0
   -1.0800   -1.1059    0.0000 C   0  0  0  0  0  0  0  0  0  0  0  0
   -0.3655    0.1316    0.0000 C   0  0  0  0  0  0  0  0  0  0  0  0
   -0.3655    0.9566    0.0000 O   0  0  0  0  0  0  0  0  0  0  0  0
    0.3490   -0.2809    0.0000 N   0  0  0  0  0  0  0  0  0  0  0  0
    1.0634    0.1316    0.0000 C   0  0  1  0  0  0  0  0  0  0  0  0
    1.7779   -0.2809    0.0000 C   0  0  0  0  0  0  0  0  0  0  0  0
    2.4924    0.1316    0.0000 C   0  0  0  0  0  0  0  0  0  0  0  0
    3.2068   -0.2809    0.0000 C   0  0  0  0  0  0  0  0  0  0  0  0
    3.9213    0.1316    0.0000 O   0  0  0  0  0  0  0  0  0  0  0  0
    3.2068   -1.1059    0.0000 O   0  0  0  0  0  0  0  0  0  0  0  0
    1.0634    0.9566    0.0000 C   0  0  0  0  0  0  0  0  0  0  0  0
    1.7779    1.3691    0.0000 O   0  0  0  0  0  0  0  0  0  0  0  0
    0.3490    1.3691    0.0000 O   0  0  0  0  0  0  0  0  0  0  0  0
   -6.7957   -6.0559    0.0000 H   0  0  0  0  0  0  0  0  0  0  0  0
   -7.5102   -4.8184    0.0000 H   0  0  0  0  0  0  0  0  0  0  0  0
   -5.3668   -6.0559    0.0000 H   0  0  0  0  0  0  0  0  0  0  0  0
   -3.2234   -3.9934    0.0000 H   0  0  0  0  0  0  0  0  0  0  0  0
   -4.2821   -1.6061    0.0000 H   0  0  0  0  0  0  0  0  0  0  0  0
   -5.0226   -1.6061    0.0000 H   0  0  0  0  0  0  0  0  0  0  0  0
   -6.0813   -2.3434    0.0000 H   0  0  0  0  0  0  0  0  0  0  0  0
   -2.3998   -2.3913    0.0000 H   0  0  0  0  0  0  0  0  0  0  0  0
   -2.7700   -3.0326    0.0000 H   0  0  0  0  0  0  0  0  0  0  0  0
   -3.9379   -1.1059    0.0000 H   0  0  0  0  0  0  0  0  0  0  0  0
   -1.7944    0.9566    0.0000 H   0  0  0  0  0  0  0  0  0  0  0  0
   -3.2234    0.1316    0.0000 H   0  0  0  0  0  0  0  0  0  0  0  0
   -1.7944   -2.3434    0.0000 H   0  0  0  0  0  0  0  0  0  0  0  0
   -0.3655   -1.5184    0.0000 H   0  0  0  0  0  0  0  0  0  0  0  0
    0.3490   -1.1059    0.0000 H   0  0  0  0  0  0  0  0  0  0  0  0
    1.0634   -0.6934    0.0000 H   0  0  0  0  0  0  0  0  0  0  0  0
    1.9212   -1.0933    0.0000 H   0  0  0  0  0  0  0  0  0  0  0  0
    2.4099   -0.8112    0.0000 H   0  0  0  0  0  0  0  0  0  0  0  0
    2.1221    0.8689    0.0000 H   0  0  0  0  0  0  0  0  0  0  0  0
    2.8626    0.8689    0.0000 H   0  0  0  0  0  0  0  0  0  0  0  0
  1 12  1  0  0  0  0
  2  1  2  0  0  0  0
  3 34  1  0  0  0  0
  3  2  1  0  0  0  0
  4  2  1  0  0  0  0
  4  5  1  0  0  0  0
  5  6  2  0  0  0  0
  5  7  1  0  0  0  0
  7 12  2  0  0  0  0
  7  8  1  0  0  0  0
  8  9  1  0  0  0  0
  9 10  1  0  0  0  0
  9 13  1  6  0  0  0
 10 37  1  0  0  0  0
 11 10  1  0  0  0  0
 11 39  1  0  0  0  0
 12 11  1  0  0  0  0
 13 41  1  0  0  0  0
 14 13  1  0  0  0  0
 14 42  1  0  0  0  0
 15 20  2  0  0  0  0
 15 16  1  0  0  0  0
 16 17  2  0  0  0  0
 17 18  1  0  0  0  0
 17 44  1  0  0  0  0
 18 14  1  0  0  0  0
 19 45  1  0  0  0  0
 19 18  2  0  0  0  0
 20 19  1  0  0  0  0
 21 15  1  0  0  0  0
 22 21  2  0  0  0  0
 23 47  1  0  0  0  0
 23 21  1  0  0  0  0
 24 48  1  1  0  0  0
 24 23  1  6  0  0  0
 25 24  1  0  0  0  0
 25 49  1  0  0  0  0
 26 52  1  0  0  0  0
 26 25  1  0  0  0  0
 27 26  1  0  0  0  0
 28 27  2  0  0  0  0
 29 27  1  0  0  0  0
 30 24  1  0  0  0  0
 30 31  1  0  0  0  0
 32 30  2  0  0  0  0
 33  3  1  0  0  0  0
 35  4  1  0  0  0  0
 36  8  1  0  0  0  0
 38 10  1  0  0  0  0
 40 13  1  0  0  0  0
 43 16  1  0  0  0  0
 46 20  1  0  0  0  0
 50 25  1  0  0  0  0
 51 26  1  0  0  0  0
M  END
