lig
 OpenBabel06172516493D

 51 53  0  0  1  0  0  0  0  0999 V2000
    3.3190    2.0990   -2.0670 N   0  0  0  0  0  0  0  0  0  0  0  0
    4.5630    2.5230   -2.5540 C   0  0  0  0  0  0  0  0  0  0  0  0
    5.5400    1.7330   -2.9270 N   0  0  0  0  0  0  0  0  0  0  0  0
    4.8160    3.9600   -2.6000 N   0  0  0  0  0  0  0  0  0  0  0  0
    3.9020    4.8610   -2.2140 C   0  0  0  0  0  0  0  0  0  0  0  0
    4.1760    6.0550   -2.2310 O   0  0  0  0  0  0  0  0  0  0  0  0
    2.5680    4.3360   -1.7480 C   0  0  0  0  0  0  0  0  0  0  0  0
    1.5540    5.2230   -1.5100 N   0  0  0  0  0  0  0  0  0  0  0  0
    0.3890    4.6890   -1.1920 C   0  0  0  0  0  0  0  0  0  0  0  0
    0.3940    3.2970   -1.1110 C   0  0  0  0  0  0  0  0  0  0  0  0
    1.3200    2.4600   -1.3110 N   0  0  0  0  0  0  0  0  0  0  0  0
    2.3960    3.0130   -1.6740 C   0  0  0  0  0  0  0  0  0  0  0  0
   -0.7980    5.5630   -0.9020 C   0  0  0  0  0  0  0  0  0  0  0  0
   -0.5640    6.9960   -1.2820 N   0  0  0  0  0  0  0  0  0  0  0  0
   -0.5020    8.0700   -5.3140 C   0  0  0  0  0  0  0  0  0  0  0  0
   -0.3770    8.9950   -4.2670 C   0  0  0  0  0  0  0  0  0  0  0  0
   -0.3980    8.5980   -2.9310 C   0  0  0  0  0  0  0  0  0  0  0  0
   -0.5660    7.2600   -2.5920 C   0  0  0  0  0  0  0  0  0  0  0  0
   -0.6690    6.3030   -3.5300 C   0  0  0  0  0  0  0  0  0  0  0  0
   -0.6310    6.7310   -4.9270 C   0  0  0  0  0  0  0  0  0  0  0  0
   -0.4590    8.4930   -6.7200 C   0  0  0  0  0  0  0  0  0  0  0  0
   -0.5170    9.6960   -6.9700 O   0  0  0  0  0  0  0  0  0  0  0  0
   -0.1600    7.6070   -7.7060 N   0  0  0  0  0  0  0  0  0  0  0  0
   -0.1670    7.7600   -9.2350 C   0  0  1  0  0  0  0  0  0  0  0  0
    1.3330    7.6550   -9.7770 C   0  0  0  0  0  0  0  0  0  0  0  0
    1.9660    8.8580  -10.6740 C   0  0  0  0  0  0  0  0  0  0  0  0
    2.9900    8.2680  -11.7100 C   0  0  0  0  0  0  0  0  0  0  0  0
    2.5220    7.2080  -12.2040 O   0  0  0  0  0  0  0  0  0  0  0  0
    4.1140    8.7670  -12.0040 O   0  0  0  0  0  0  0  0  0  0  0  0
   -0.8150    6.5130   -9.7600 C   0  0  0  0  0  0  0  0  0  0  0  0
   -0.6230    5.4450   -9.2030 O   0  0  0  0  0  0  0  0  0  0  0  0
   -1.4860    6.5930  -10.7930 O   0  0  0  0  0  0  0  0  0  0  0  0
    3.0800    1.1340   -1.9900 H   0  0  0  0  0  0  0  0  0  0  0  0
    6.3530    2.2210   -3.2860 H   0  0  0  0  0  0  0  0  0  0  0  0
    5.5720    0.7360   -2.8600 H   0  0  0  0  0  0  0  0  0  0  0  0
   -0.5610    2.8690   -0.8070 H   0  0  0  0  0  0  0  0  0  0  0  0
   -0.9540    5.5300    0.1970 H   0  0  0  0  0  0  0  0  0  0  0  0
   -1.7020    5.1470   -1.3850 H   0  0  0  0  0  0  0  0  0  0  0  0
    0.2990    7.3160   -0.8250 H   0  0  0  0  0  0  0  0  0  0  0  0
   -0.2520   10.0510   -4.4780 H   0  0  0  0  0  0  0  0  0  0  0  0
   -0.3070    9.3540   -2.1600 H   0  0  0  0  0  0  0  0  0  0  0  0
   -0.7910    5.2490   -3.3670 H   0  0  0  0  0  0  0  0  0  0  0  0
   -0.7470    5.9730   -5.6690 H   0  0  0  0  0  0  0  0  0  0  0  0
    0.0960    6.6970   -7.3850 H   0  0  0  0  0  0  0  0  0  0  0  0
   -0.6700    8.6930   -9.5560 H   0  0  0  0  0  0  0  0  0  0  0  0
    1.4600    6.6860  -10.2850 H   0  0  0  0  0  0  0  0  0  0  0  0
    1.9990    7.5880   -8.8880 H   0  0  0  0  0  0  0  0  0  0  0  0
    2.4550    9.6130  -10.0400 H   0  0  0  0  0  0  0  0  0  0  0  0
    1.1660    9.3300  -11.2740 H   0  0  0  0  0  0  0  0  0  0  0  0
    4.8210    8.6860  -11.3510 H   0  0  0  0  0  0  0  0  0  0  0  0
   -1.4120    7.4560  -11.2100 H   0  0  0  0  0  0  0  0  0  0  0  0
  1 33  1  0  0  0  0
  1 12  1  0  0  0  0
  2  1  1  0  0  0  0
  3 35  1  0  0  0  0
  3  2  1  0  0  0  0
  4  2  2  0  0  0  0
  4  5  1  0  0  0  0
  5  7  1  0  0  0  0
  6  5  2  0  0  0  0
  7 12  2  0  0  0  0
  7  8  1  0  0  0  0
  8  9  2  0  0  0  0
  9 10  1  0  0  0  0
  9 13  1  0  0  0  0
 10 36  1  0  0  0  0
 11 10  2  0  0  0  0
 12 11  1  0  0  0  0
 13 37  1  0  0  0  0
 14 13  1  0  0  0  0
 14 39  1  0  0  0  0
 15 20  2  0  0  0  0
 15 16  1  0  0  0  0
 16 17  2  0  0  0  0
 17 18  1  0  0  0  0
 17 41  1  0  0  0  0
 18 14  1  0  0  0  0
 19 42  1  0  0  0  0
 19 18  2  0  0  0  0
 20 19  1  0  0  0  0
 21 15  1  0  0  0  0
 22 21  2  0  0  0  0
 23 44  1  0  0  0  0
 23 21  1  0  0  0  0
 24 45  1  6  0  0  0
 24 23  1  0  0  0  0
 25 24  1  0  0  0  0
 25 47  1  0  0  0  0
 26 48  1  0  0  0  0
 26 25  1  0  0  0  0
 27 26  1  0  0  0  0
 28 27  2  0  0  0  0
 29 27  1  0  0  0  0
 29 50  1  0  0  0  0
 30 24  1  0  0  0  0
 30 31  2  0  0  0  0
 32 30  1  0  0  0  0
 34  3  1  0  0  0  0
 38 13  1  0  0  0  0
 40 16  1  0  0  0  0
 43 20  1  0  0  0  0
 46 25  1  0  0  0  0
 49 26  1  0  0  0  0
 51 32  1  0  0  0  0
M  END
