lig
 OpenBabel06172516512D

 52 54  0  0  1  0  0  0  0  0999 V2000
    2.5508    0.4909    0.0000 N   0  0  0  0  0  0  0  0  0  0  0  0
    3.4011    0.0000    0.0000 C   0  0  0  0  0  0  0  0  0  0  0  0
    4.2514    0.4909    0.0000 N   0  0  0  0  0  0  0  0  0  0  0  0
    3.4011   -0.9818    0.0000 N   0  0  0  0  0  0  0  0  0  0  0  0
    2.5508   -1.4727    0.0000 C   0  0  0  0  0  0  0  0  0  0  0  0
    2.5508   -2.4545    0.0000 O   0  0  0  0  0  0  0  0  0  0  0  0
    1.7006   -0.9818    0.0000 C   0  0  0  0  0  0  0  0  0  0  0  0
    0.8503   -1.4727    0.0000 N   0  0  0  0  0  0  0  0  0  0  0  0
    0.0000   -0.9818    0.0000 C   0  0  2  0  0  0  0  0  0  0  0  0
    0.0000   -0.0000    0.0000 C   0  0  0  0  0  0  0  0  0  0  0  0
    0.8503    0.4909    0.0000 N   0  0  0  0  0  0  0  0  0  0  0  0
    1.7006    0.0000    0.0000 C   0  0  0  0  0  0  0  0  0  0  0  0
   -0.8503   -1.4727    0.0000 C   0  0  0  0  0  0  0  0  0  0  0  0
   -1.7006   -0.9818    0.0000 N   0  0  0  0  0  0  0  0  0  0  0  0
   -4.2514   -2.4545    0.0000 C   0  0  0  0  0  0  0  0  0  0  0  0
   -4.2514   -1.4727    0.0000 C   0  0  0  0  0  0  0  0  0  0  0  0
   -3.4011   -0.9818    0.0000 C   0  0  0  0  0  0  0  0  0  0  0  0
   -2.5508   -1.4727    0.0000 C   0  0  0  0  0  0  0  0  0  0  0  0
   -2.5508   -2.4545    0.0000 C   0  0  0  0  0  0  0  0  0  0  0  0
   -3.4011   -2.9455    0.0000 C   0  0  0  0  0  0  0  0  0  0  0  0
   -5.1017   -2.9455    0.0000 C   0  0  0  0  0  0  0  0  0  0  0  0
   -5.1017   -3.9273    0.0000 O   0  0  0  0  0  0  0  0  0  0  0  0
   -5.9520   -2.4545    0.0000 N   0  0  0  0  0  0  0  0  0  0  0  0
   -6.8022   -2.9455    0.0000 C   0  0  1  0  0  0  0  0  0  0  0  0
   -6.3113   -3.7957    0.0000 C   0  0  0  0  0  0  0  0  0  0  0  0
   -7.2931   -5.4963    0.0000 C   0  0  0  0  0  0  0  0  0  0  0  0
   -6.8022   -6.3466    0.0000 C   0  0  0  0  0  0  0  0  0  0  0  0
   -7.2931   -7.1969    0.0000 O   0  0  0  0  0  0  0  0  0  0  0  0
   -5.8204   -6.3466    0.0000 O   0  0  0  0  0  0  0  0  0  0  0  0
   -7.6525   -3.4364    0.0000 C   0  0  0  0  0  0  0  0  0  0  0  0
   -7.6525   -4.4182    0.0000 O   0  0  0  0  0  0  0  0  0  0  0  0
   -8.5028   -2.9455    0.0000 O   0  0  0  0  0  0  0  0  0  0  0  0
    5.1017    0.0000    0.0000 H   0  0  0  0  0  0  0  0  0  0  0  0
    4.2514    1.4727    0.0000 H   0  0  0  0  0  0  0  0  0  0  0  0
    4.2514   -1.4727    0.0000 H   0  0  0  0  0  0  0  0  0  0  0  0
    0.8503   -2.4545    0.0000 H   0  0  0  0  0  0  0  0  0  0  0  0
   -0.4909    0.8503    0.0000 H   0  0  0  0  0  0  0  0  0  0  0  0
   -0.9818   -0.0000    0.0000 H   0  0  0  0  0  0  0  0  0  0  0  0
    0.8503    1.4727    0.0000 H   0  0  0  0  0  0  0  0  0  0  0  0
   -1.3412   -2.3230    0.0000 H   0  0  0  0  0  0  0  0  0  0  0  0
   -0.3594   -2.3230    0.0000 H   0  0  0  0  0  0  0  0  0  0  0  0
   -1.7006   -0.0000    0.0000 H   0  0  0  0  0  0  0  0  0  0  0  0
   -5.1017   -0.9818    0.0000 H   0  0  0  0  0  0  0  0  0  0  0  0
   -3.4011   -0.0000    0.0000 H   0  0  0  0  0  0  0  0  0  0  0  0
   -1.7006   -2.9455    0.0000 H   0  0  0  0  0  0  0  0  0  0  0  0
   -3.4011   -3.9273    0.0000 H   0  0  0  0  0  0  0  0  0  0  0  0
   -5.9520   -1.4727    0.0000 H   0  0  0  0  0  0  0  0  0  0  0  0
   -7.2931   -2.0952    0.0000 H   0  0  0  0  0  0  0  0  0  0  0  0
   -5.4610   -3.3048    0.0000 H   0  0  0  0  0  0  0  0  0  0  0  0
   -5.4610   -4.2866    0.0000 H   0  0  0  0  0  0  0  0  0  0  0  0
   -8.1434   -5.9872    0.0000 H   0  0  0  0  0  0  0  0  0  0  0  0
   -8.1434   -5.0054    0.0000 H   0  0  0  0  0  0  0  0  0  0  0  0
  1 12  1  0  0  0  0
  2  1  2  0  0  0  0
  3 34  1  0  0  0  0
  3  2  1  0  0  0  0
  4  2  1  0  0  0  0
  4  5  1  0  0  0  0
  5  6  2  0  0  0  0
  5  7  1  0  0  0  0
  7 12  2  0  0  0  0
  7  8  1  0  0  0  0
  8  9  1  0  0  0  0
  9 10  1  0  0  0  0
  9 13  1  1  0  0  0
 10 37  1  0  0  0  0
 11 10  1  0  0  0  0
 11 39  1  0  0  0  0
 12 11  1  0  0  0  0
 13 41  1  0  0  0  0
 14 13  1  0  0  0  0
 14 42  1  0  0  0  0
 15 20  2  0  0  0  0
 15 16  1  0  0  0  0
 16 17  2  0  0  0  0
 17 18  1  0  0  0  0
 17 44  1  0  0  0  0
 18 14  1  0  0  0  0
 19 45  1  0  0  0  0
 19 18  2  0  0  0  0
 20 19  1  0  0  0  0
 21 15  1  0  0  0  0
 22 21  2  0  0  0  0
 23 47  1  0  0  0  0
 23 21  1  0  0  0  0
 24 48  1  6  0  0  0
 24 23  1  0  0  0  0
 25 24  1  0  0  0  0
 25 49  1  0  0  0  0
 26 52  1  0  0  0  0
 26 25  1  0  0  0  0
 27 26  1  0  0  0  0
 28 27  2  0  0  0  0
 29 27  1  0  0  0  0
 30 24  1  0  0  0  0
 30 31  1  0  0  0  0
 32 30  2  0  0  0  0
 33  3  1  0  0  0  0
 35  4  1  0  0  0  0
 36  8  1  0  0  0  0
 38 10  1  0  0  0  0
 40 13  1  0  0  0  0
 43 16  1  0  0  0  0
 46 20  1  0  0  0  0
 50 25  1  0  0  0  0
 51 26  1  0  0  0  0
M  END
