@<TRIPOS>MOLECULE
lig
 52 54 0 0 0
SMALL
GASTEIGER

@<TRIPOS>ATOM
      1  N1         3.5570    2.0650   -2.0360 N.ar    1  HET1       -0.1994
      2  C1         4.6720    2.5460   -2.5100 C.ar    1  HET1        0.1948
      3  N2         5.7440    1.7530   -2.8550 N.pl3   1  HET1       -0.3289
      4  N3         4.8450    3.9030   -2.6780 N.ar    1  HET1       -0.2937
      5  C2         3.8910    4.8210   -2.3260 C.ar    1  HET1        0.2755
      6  O1         4.0570    6.0360   -2.3040 O.2     1  HET1       -0.2657
      7  C3         2.6080    4.2460   -1.8890 C.ar    1  HET1        0.1332
      8  N4         1.4950    5.1470   -1.5800 N.pl3   1  HET1       -0.3265
      9  C4         0.3400    4.6740   -1.2840 C.3     1  HET1        0.0871
     10  C5         0.1030    3.2060   -1.1820 C.3     1  HET1        0.0353
     11  N5         1.3090    2.4070   -1.2840 N.pl3   1  HET1       -0.3252
     12  C6         2.5170    2.9130   -1.7500 C.ar    1  HET1        0.1488
     13  C7        -0.8040    5.6110   -1.0790 C.3     1  HET1        0.0339
     14  N6        -0.4690    6.9950   -1.3580 N.pl3   1  HET1       -0.3417
     15  C8        -0.4740    8.1840   -5.3970 C.ar    1  HET1        0.0368
     16  C9        -0.3730    9.1310   -4.3800 C.ar    1  HET1       -0.0479
     17  C10       -0.4000    8.7220   -3.0460 C.ar    1  HET1       -0.0401
     18  C11       -0.5670    7.3750   -2.7110 C.ar    1  HET1        0.0272
     19  C12       -0.7290    6.4440   -3.7420 C.ar    1  HET1       -0.0401
     20  C13       -0.6680    6.8400   -5.0780 C.ar    1  HET1       -0.0479
     21  C14       -0.4030    8.6260   -6.8060 C.2     1  HET1        0.2447
     22  O2        -0.7560    9.7620   -7.0920 O.2     1  HET1       -0.2702
     23  N7         0.0940    7.6700   -7.6440 N.am    1  HET1       -0.2982
     24  CA        -0.0140    7.6760   -9.1050 C.3     1  HET1        0.1254
     25  CB         1.3510    7.4350   -9.7310 C.3     1  HET1       -0.0137
     26  CG         1.8900    8.6310  -10.5020 C.3     1  HET1        0.0514
     27  CD         2.9460    8.1760  -11.5100 C.2     1  HET1        0.3561
     28  OE1        2.7230    7.0900  -12.1100 O.co2   1  HET1       -0.2464
     29  OE2        3.9360    8.9570  -11.6380 O.co2   1  HET1       -0.2464
     30  C15       -0.8710    6.4720   -9.5840 C.2     1  HET1        0.3759
     31  O3        -0.7550    5.3980   -8.9100 O.co2   1  HET1       -0.2443
     32  OXT       -1.6650    6.7150  -10.5390 O.co2   1  HET1       -0.2443
     33  H1         6.6040    2.1820   -3.2260 H       1  HET1        0.1451
     34  H2         5.6850    0.7310   -2.7420 H       1  HET1        0.1451
     35  H3         5.7290    4.2410   -3.0850 H       1  HET1        0.1716
     36  H4         1.6400    6.1670   -1.6020 H       1  HET1        0.1470
     37  H5        -0.3690    2.9980   -0.2110 H       1  HET1        0.0484
     38  H6        -0.5370    2.9270   -2.0320 H       1  HET1        0.0484
     39  H7         1.2690    1.4190   -0.9980 H       1  HET1        0.1476
     40  H8        -1.6260    5.3100   -1.7440 H       1  HET1        0.0483
     41  H9        -1.0870    5.5530   -0.0170 H       1  HET1        0.0483
     42  H10       -0.1810    7.6530   -0.6200 H       1  HET1        0.1461
     43  H11       -0.2730   10.1980   -4.6280 H       1  HET1        0.0626
     44  H12       -0.2890    9.4700   -2.2470 H       1  HET1        0.0636
     45  H13       -0.9080    5.3870   -3.4960 H       1  HET1        0.0636
     46  H14       -0.7720    6.0930   -5.8790 H       1  HET1        0.0626
     47  H15        0.5870    6.8760   -7.2120 H       1  HET1        0.1498
     48  HA        -0.4470    8.6450   -9.3920 H       1  HET1        0.0616
     49  HB1        2.0630    7.1890   -8.9290 H       1  HET1        0.0294
     50  HB2        1.2330    6.6140  -10.4540 H       1  HET1        0.0294
     51  HG1        1.0640    9.1220  -11.0370 H       1  HET1        0.0380
     52  HG2        2.3500    9.3370   -9.7940 H       1  HET1        0.0380
@<TRIPOS>BOND
     1    28    27   ar
     2    29    27   ar
     3    27    26    1
     4    51    26    1
     5    32    30   ar
     6    26    52    1
     7    26    25    1
     8    50    25    1
     9    25    24    1
    10    25    49    1
    11    30    24    1
    12    30    31   ar
    13    48    24    1
    14    24    23    1
    15    23    47    1
    16    23    21   am
    17    22    21    2
    18    21    15    1
    19    46    20    1
    20    15    20   ar
    21    15    16   ar
    22    20    19   ar
    23    43    16    1
    24    16    17   ar
    25    19    45    1
    26    19    18   ar
    27    33     3    1
    28    35     4    1
    29    17    18   ar
    30    17    44    1
    31     3    34    1
    32     3     2    1
    33    18    14    1
    34     4     2   ar
    35     4     5   ar
    36     2     1   ar
    37     5     6    2
    38     5     7   ar
    39     1    12   ar
    40    38    10    1
    41     7    12   ar
    42     7     8    1
    43    12    11    1
    44    40    13    1
    45    36     8    1
    46     8     9    1
    47    14    13    1
    48    14    42    1
    49    11    10    1
    50    11    39    1
    51     9    10    1
    52     9    13    1
    53    10    37    1
    54    13    41    1
