lig
 OpenBabel06172516512D

 75 79  0  0  1  0  0  0  0  0999 V2000
    0.0000   -0.9753    0.0000 P   0  0  1  0  0  0  0  0  0  0  0  0
   -0.9753   -0.9753    0.0000 O   0  0  0  0  0  0  0  0  0  0  0  0
    0.0000   -1.9506    0.0000 O   0  0  0  0  0  0  0  0  0  0  0  0
    0.9753   -0.9753    0.0000 O   0  0  0  0  0  0  0  0  0  0  0  0
    1.4630   -0.1307    0.0000 C   0  0  0  0  0  0  0  0  0  0  0  0
    3.4136   -0.1307    0.0000 C   0  0  1  0  0  0  0  0  0  0  0  0
    4.3769    0.0219    0.0000 O   0  0  0  0  0  0  0  0  0  0  0  0
    3.2610   -1.0940    0.0000 C   0  0  1  0  0  0  0  0  0  0  0  0
    2.2870   -1.0429    0.0000 O   0  0  0  0  0  0  0  0  0  0  0  0
    4.1300   -1.5367    0.0000 C   0  0  1  0  0  0  0  0  0  0  0  0
    3.4310   -3.3578    0.0000 O   0  0  0  0  0  0  0  0  0  0  0  0
    4.8197   -0.8471    0.0000 C   0  0  2  0  0  0  0  0  0  0  0  0
    5.5776   -1.4609    0.0000 N   0  0  0  0  0  0  0  0  0  0  0  0
    5.5266   -2.4349    0.0000 C   0  0  0  0  0  0  0  0  0  0  0  0
    6.4371   -2.7844    0.0000 N   0  0  0  0  0  0  0  0  0  0  0  0
    7.0509   -2.0264    0.0000 C   0  0  0  0  0  0  0  0  0  0  0  0
    8.0249   -1.9754    0.0000 C   0  0  1  0  0  0  0  0  0  0  0  0
    8.5560   -2.7933    0.0000 N   0  0  0  0  0  0  0  0  0  0  0  0
    8.4676   -1.1064    0.0000 N   0  0  0  0  0  0  0  0  0  0  0  0
    7.9364   -0.2884    0.0000 C   0  0  0  0  0  0  0  0  0  0  0  0
    6.9625   -0.3394    0.0000 N   0  0  0  0  0  0  0  0  0  0  0  0
    6.5197   -1.2085    0.0000 C   0  0  0  0  0  0  0  0  0  0  0  0
    0.0000   -0.0000    0.0000 O   0  0  0  0  0  0  0  0  0  0  0  0
   -0.0000    0.9753    0.0000 P   0  0  2  0  0  0  0  0  0  0  0  0
    0.9753    0.9753    0.0000 O   0  0  0  0  0  0  0  0  0  0  0  0
   -0.0000    1.9506    0.0000 O   0  0  0  0  0  0  0  0  0  0  0  0
   -0.9753    0.9753    0.0000 O   0  0  0  0  0  0  0  0  0  0  0  0
   -1.4630    1.8200    0.0000 C   0  0  0  0  0  0  0  0  0  0  0  0
   -2.4383    1.8200    0.0000 C   0  0  1  0  0  0  0  0  0  0  0  0
   -3.3293    2.2166    0.0000 O   0  0  0  0  0  0  0  0  0  0  0  0
   -2.5402    0.8500    0.0000 C   0  0  1  0  0  0  0  0  0  0  0  0
   -2.2388   -0.0776    0.0000 O   0  0  0  0  0  0  0  0  0  0  0  0
   -3.4942    0.6472    0.0000 C   0  0  1  0  0  0  0  0  0  0  0  0
   -4.2833    0.0739    0.0000 O   0  0  0  0  0  0  0  0  0  0  0  0
   -3.9819    1.4918    0.0000 C   0  0  2  0  0  0  0  0  0  0  0  0
   -4.7709    2.0651    0.0000 N   0  0  0  0  0  0  0  0  0  0  0  0
   -5.6619    1.6684    0.0000 C   0  0  0  0  0  0  0  0  0  0  0  0
   -6.4509    2.2417    0.0000 C   0  0  0  0  0  0  0  0  0  0  0  0
   -7.3419    1.8450    0.0000 C   0  0  0  0  0  0  0  0  0  0  0  0
   -8.1310    2.4183    0.0000 O   0  0  0  0  0  0  0  0  0  0  0  0
   -7.4439    0.8750    0.0000 N   0  0  0  0  0  0  0  0  0  0  0  0
   -6.3490    3.2117    0.0000 C   0  0  0  0  0  0  0  0  0  0  0  0
   -5.4580    3.6084    0.0000 C   0  0  0  0  0  0  0  0  0  0  0  0
   -4.6690    3.0351    0.0000 C   0  0  0  0  0  0  0  0  0  0  0  0
    2.4677   -3.5104    0.0000 P   0  0  1  0  0  0  0  0  0  0  0  0
    2.3151   -2.5471    0.0000 O   0  0  0  0  0  0  0  0  0  0  0  0
    1.5044   -3.6630    0.0000 O   0  0  0  0  0  0  0  0  0  0  0  0
    2.6202   -4.4737    0.0000 O   0  0  0  0  0  0  0  0  0  0  0  0
    1.4630    0.8446    0.0000 H   0  0  0  0  0  0  0  0  0  0  0  0
    0.6183    0.3570    0.0000 H   0  0  0  0  0  0  0  0  0  0  0  0
    3.6076    0.8251    0.0000 H   0  0  0  0  0  0  0  0  0  0  0  0
    2.7298   -1.9119    0.0000 H   0  0  0  0  0  0  0  0  0  0  0  0
    1.7558   -1.8609    0.0000 H   0  0  0  0  0  0  0  0  0  0  0  0
    4.7438   -2.2947    0.0000 H   0  0  0  0  0  0  0  0  0  0  0  0
    5.7302   -0.4976    0.0000 H   0  0  0  0  0  0  0  0  0  0  0  0
    4.7086   -2.9660    0.0000 H   0  0  0  0  0  0  0  0  0  0  0  0
    8.1133   -3.6623    0.0000 H   0  0  0  0  0  0  0  0  0  0  0  0
    9.5300   -2.7423    0.0000 H   0  0  0  0  0  0  0  0  0  0  0  0
    8.3792    0.5806    0.0000 H   0  0  0  0  0  0  0  0  0  0  0  0
   -1.4630    2.7953    0.0000 H   0  0  0  0  0  0  0  0  0  0  0  0
   -0.6183    2.3076    0.0000 H   0  0  0  0  0  0  0  0  0  0  0  0
   -1.9506    2.6646    0.0000 H   0  0  0  0  0  0  0  0  0  0  0  0
   -1.5862    0.6472    0.0000 H   0  0  0  0  0  0  0  0  0  0  0  0
   -2.8914   -0.8024    0.0000 H   0  0  0  0  0  0  0  0  0  0  0  0
   -3.3923   -0.3228    0.0000 H   0  0  0  0  0  0  0  0  0  0  0  0
   -5.1742    0.4706    0.0000 H   0  0  0  0  0  0  0  0  0  0  0  0
   -4.8729    1.0952    0.0000 H   0  0  0  0  0  0  0  0  0  0  0  0
   -5.7638    0.6985    0.0000 H   0  0  0  0  0  0  0  0  0  0  0  0
   -8.3349    0.4783    0.0000 H   0  0  0  0  0  0  0  0  0  0  0  0
   -6.6548    0.3018    0.0000 H   0  0  0  0  0  0  0  0  0  0  0  0
   -6.7457    4.1027    0.0000 H   0  0  0  0  0  0  0  0  0  0  0  0
   -7.3190    3.3136    0.0000 H   0  0  0  0  0  0  0  0  0  0  0  0
   -5.3561    4.5783    0.0000 H   0  0  0  0  0  0  0  0  0  0  0  0
   -3.7780    3.4318    0.0000 H   0  0  0  0  0  0  0  0  0  0  0  0
    1.8623   -5.0875    0.0000 H   0  0  0  0  0  0  0  0  0  0  0  0
  1  3  2  1  0  0  0
  1  4  1  0  0  0  0
  1  2  1  0  0  0  0
  1 23  1  0  0  0  0
  4  5  1  0  0  0  0
  5 49  1  0  0  0  0
  5 50  1  0  0  0  0
  6  5  1  0  0  0  0
  6  8  1  6  0  0  0
  7 12  1  0  0  0  0
  7  6  1  0  0  0  0
  8 10  1  6  0  0  0
  8 52  1  0  0  0  0
  8  9  1  0  0  0  0
  9 53  1  0  0  0  0
 10 12  1  6  0  0  0
 10 54  1  0  0  0  0
 11 10  1  0  0  0  0
 11 45  1  0  0  0  0
 12 55  1  6  0  0  0
 12 13  1  0  0  0  0
 13 14  1  0  0  0  0
 14 56  1  0  0  0  0
 14 15  2  0  0  0  0
 16 17  1  0  0  0  0
 16 15  1  0  0  0  0
 17 18  1  6  0  0  0
 18 57  1  0  0  0  0
 18 58  1  0  0  0  0
 19 17  1  0  0  0  0
 20 19  2  0  0  0  0
 21 20  1  0  0  0  0
 21 22  1  0  0  0  0
 22 13  1  0  0  0  0
 22 16  2  0  0  0  0
 23 24  1  0  0  0  0
 24 26  2  1  0  0  0
 24 25  1  0  0  0  0
 27 24  1  0  0  0  0
 28 29  1  0  0  0  0
 28 60  1  0  0  0  0
 28 27  1  0  0  0  0
 29 31  1  1  0  0  0
 29 62  1  0  0  0  0
 30 29  1  0  0  0  0
 31 33  1  6  0  0  0
 31 63  1  0  0  0  0
 31 32  1  0  0  0  0
 32 64  1  0  0  0  0
 33 35  1  6  0  0  0
 34 66  1  0  0  0  0
 34 33  1  0  0  0  0
 35 67  1  1  0  0  0
 35 30  1  0  0  0  0
 36 35  1  0  0  0  0
 37 36  1  0  0  0  0
 37 68  1  0  0  0  0
 38 37  2  0  0  0  0
 39 38  1  0  0  0  0
 39 41  1  0  0  0  0
 40 39  2  0  0  0  0
 41 70  1  0  0  0  0
 42 71  1  0  0  0  0
 42 43  1  0  0  0  0
 42 38  1  0  0  0  0
 43 44  2  0  0  0  0
 44 74  1  0  0  0  0
 44 36  1  0  0  0  0
 45 46  2  1  0  0  0
 45 47  1  0  0  0  0
 45 48  1  0  0  0  0
 48 75  1  0  0  0  0
 51  6  1  0  0  0  0
 59 20  1  0  0  0  0
 61 28  1  0  0  0  0
 65 33  1  0  0  0  0
 69 41  1  0  0  0  0
 72 42  1  0  0  0  0
 73 43  1  0  0  0  0
M  END
