lig
  Mrv15b2306172516493D          

 75 79  0  0  1  0            999 V2000
    2.5651   12.8493   -2.7726 P   0  0  2  0  0  0  0  0  0  0  0  0
    2.7804   12.1255   -4.0235 O   0  0  0  0  0  0  0  0  0  0  0  0
    1.4181   12.1551   -1.9238 O   0  5  0  0  0  0  0  0  0  0  0  0
    2.0680   14.2928   -3.2047 O   0  0  0  0  0  0  0  0  0  0  0  0
    1.6165   15.0451   -2.0886 C   0  0  1  0  0  0  0  0  0  0  0  0
    1.0179   16.2856   -2.7179 C   0  0  1  0  0  0  0  0  0  0  0  0
   -0.0537   15.9889   -3.6024 O   0  0  0  0  0  0  0  0  0  0  0  0
    0.4597   17.2097   -1.6352 C   0  0  1  0  0  0  0  0  0  0  0  0
    1.5039   18.2356   -1.5314 O   0  0  0  0  0  0  0  0  0  0  0  0
   -0.9235   17.6371   -2.2272 C   0  0  1  0  0  0  0  0  0  0  0  0
   -1.1013   19.0723   -2.0874 O   0  0  0  0  0  0  0  0  0  0  0  0
   -0.8556   17.1672   -3.7013 C   0  0  2  0  0  0  0  0  0  0  0  0
   -2.0900   16.8717   -4.3888 N   0  0  0  0  0  0  0  0  0  0  0  0
   -3.3636   16.9535   -3.9405 C   0  0  0  0  0  0  0  0  0  0  0  0
   -4.2684   16.6203   -4.8785 N   0  0  0  0  0  0  0  0  0  0  0  0
   -3.5412   16.3194   -5.9569 C   0  0  0  0  0  0  0  0  0  0  0  0
   -3.8740   15.9086   -7.2640 C   0  0  0  0  0  0  0  0  0  0  0  0
   -5.1587   15.7431   -7.6384 N   0  0  2  0  0  0  0  0  0  0  0  0
   -2.8688   15.6782   -8.1675 N   0  0  0  0  0  0  0  0  0  0  0  0
   -1.5424   15.8262   -7.8608 C   0  0  0  0  0  0  0  0  0  0  0  0
   -1.1128   16.2136   -6.6436 N   0  0  0  0  0  0  0  0  0  0  0  0
   -2.1381   16.4604   -5.6936 C   0  0  0  0  0  0  0  0  0  0  0  0
    3.8852   13.0836   -1.8977 O   0  0  0  0  0  0  0  0  0  0  0  0
    4.4635   11.8587   -1.0537 P   0  0  1  0  0  0  0  0  0  0  0  0
    5.3734   12.4038   -0.0316 O   0  0  0  0  0  0  0  0  0  0  0  0
    3.3195   11.0629   -0.2991 O   0  5  0  0  0  0  0  0  0  0  0  0
    5.3236   10.8267   -1.9029 O   0  0  0  0  0  0  0  0  0  0  0  0
    4.9585   10.5678   -3.2579 C   0  0  1  0  0  0  0  0  0  0  0  0
    5.9810    9.5837   -3.8216 C   0  0  1  0  0  0  0  0  0  0  0  0
    5.8658    9.2921   -5.2073 O   0  0  0  0  0  0  0  0  0  0  0  0
    7.4148   10.1212   -3.7186 C   0  0  1  0  0  0  0  0  0  0  0  0
    7.9139   10.1930   -2.3872 O   0  0  0  0  0  0  0  0  0  0  0  0
    8.1574    9.0708   -4.5391 C   0  0  1  0  0  0  0  0  0  0  0  0
    8.4703    7.9181   -3.7619 O   0  0  0  0  0  0  0  0  0  0  0  0
    7.1168    8.6667   -5.6269 C   0  0  2  0  0  0  0  0  0  0  0  0
    7.4244    9.0706   -6.9749 N   0  0  0  0  0  0  0  0  0  0  0  0
    6.3930    9.3462   -7.8008 C   0  0  0  0  0  0  0  0  0  0  0  0
    6.4770   10.3759   -8.6588 C   0  0  0  0  0  0  0  0  0  0  0  0
    5.4159   10.6576   -9.4915 C   0  0  0  0  0  0  0  0  0  0  0  0
    4.6440    9.7465   -9.8838 O   0  0  0  0  0  0  0  0  0  0  0  0
    5.1872   11.9086   -9.9004 N   0  0  0  0  0  0  0  0  0  0  0  0
    7.7276   11.1773   -8.7134 C   0  0  2  0  0  0  0  0  0  0  0  0
    8.8679   10.4094   -8.2307 C   0  0  0  0  0  0  0  0  0  0  0  0
    8.6832    9.3491   -7.4321 C   0  0  0  0  0  0  0  0  0  0  0  0
   -1.2668   19.5710   -0.5601 P   0  0  1  0  0  0  0  0  0  0  0  0
   -1.5092   21.0199   -0.5966 O   0  0  0  0  0  0  0  0  0  0  0  0
   -2.4784   18.7396    0.0763 O   0  5  0  0  0  0  0  0  0  0  0  0
   -0.0406   19.2628    0.3858 O   0  0  0  0  0  0  0  0  0  0  0  0
    0.8188   14.5364   -1.5359 H   0  0  0  0  0  0  0  0  0  0  0  0
    2.4459   15.3066   -1.4151 H   0  0  0  0  0  0  0  0  0  0  0  0
    1.7957   16.8147   -3.2885 H   0  0  0  0  0  0  0  0  0  0  0  0
    0.2634   16.7147   -0.6472 H   0  0  0  0  0  0  0  0  0  0  0  0
    1.2629   18.8700   -0.8739 H   0  0  0  0  0  0  0  0  0  0  0  0
   -1.7220   17.0773   -1.7257 H   0  0  0  0  0  0  0  0  0  0  0  0
   -0.3185   17.9182   -4.2925 H   0  0  0  0  0  0  0  0  0  0  0  0
   -3.6365   17.2416   -2.9937 H   0  0  0  0  0  0  0  0  0  0  0  0
   -5.1914   15.4599   -8.5656 H   0  0  0  0  0  0  0  0  0  0  0  0
   -5.6349   16.5824   -7.5397 H   0  0  0  0  0  0  0  0  0  0  0  0
   -0.8361   15.6383   -8.5801 H   0  0  0  0  0  0  0  0  0  0  0  0
    3.9664   10.1174   -3.2871 H   0  0  0  0  0  0  0  0  0  0  0  0
    4.9597   11.5134   -3.7999 H   0  0  0  0  0  0  0  0  0  0  0  0
    5.8359    8.6521   -3.2711 H   0  0  0  0  0  0  0  0  0  0  0  0
    7.4997   11.1097   -4.1957 H   0  0  0  0  0  0  0  0  0  0  0  0
    8.8291   10.5431   -2.3998 H   0  0  0  0  0  0  0  0  0  0  0  0
    9.0884    9.5079   -4.9091 H   0  0  0  0  0  0  0  0  0  0  0  0
    8.9453    7.2671   -4.3197 H   0  0  0  0  0  0  0  0  0  0  0  0
    6.9633    7.5814   -5.6391 H   0  0  0  0  0  0  0  0  0  0  0  0
    5.5463    8.8099   -7.6996 H   0  0  0  0  0  0  0  0  0  0  0  0
    4.4463   12.0977  -10.4882 H   0  0  0  0  0  0  0  0  0  0  0  0
    5.7760   12.6177   -9.5958 H   0  0  0  0  0  0  0  0  0  0  0  0
    7.6107   12.0749   -8.1061 H   0  0  0  0  0  0  0  0  0  0  0  0
    9.7728   10.6882   -8.5236 H   0  0  0  0  0  0  0  0  0  0  0  0
    9.4670    8.8001   -7.1505 H   0  0  0  0  0  0  0  0  0  0  0  0
   -0.2301   19.5996    1.2864 H   0  0  0  0  0  0  0  0  0  0  0  0
    7.9115   11.7211   -9.6400 H   0  0  0  0  0  0  0  0  0  0  0  0
  1  4  1  0  0  0  0
  1  2  2  0  0  0  0
  1 23  1  0  0  0  0
  1  3  1  0  0  0  0
  4  5  1  0  0  0  0
  5 50  1  0  0  0  0
  5 49  1  0  0  0  0
  6  5  1  0  0  0  0
  6  8  1  0  0  0  0
  7 12  1  0  0  0  0
  7  6  1  0  0  0  0
  8 10  1  0  0  0  0
  8 52  1  0  0  0  0
  8  9  1  0  0  0  0
  9 53  1  0  0  0  0
 10 12  1  0  0  0  0
 10 54  1  0  0  0  0
 11 10  1  0  0  0  0
 11 45  1  0  0  0  0
 12 55  1  0  0  0  0
 12 13  1  0  0  0  0
 13 22  1  0  0  0  0
 13 14  1  0  0  0  0
 14 15  2  0  0  0  0
 16 15  1  0  0  0  0
 16 17  1  0  0  0  0
 17 18  1  0  0  0  0
 18 57  1  0  0  0  0
 19 17  2  0  0  0  0
 20 19  1  0  0  0  0
 21 20  2  0  0  0  0
 21 22  1  0  0  0  0
 22 16  2  0  0  0  0
 23 24  1  0  0  0  0
 24 25  2  0  0  0  0
 24 26  1  0  0  0  0
 27 24  1  0  0  0  0
 28 29  1  0  0  0  0
 28 60  1  0  0  0  0
 28 27  1  0  0  0  0
 29 31  1  0  0  0  0
 29 62  1  0  0  0  0
 30 29  1  0  0  0  0
 31 33  1  0  0  0  0
 31 32  1  0  0  0  0
 32 64  1  0  0  0  0
 33 35  1  0  0  0  0
 34 33  1  0  0  0  0
 34 66  1  0  0  0  0
 35 67  1  0  0  0  0
 35 30  1  0  0  0  0
 35 36  1  0  0  0  0
 37 68  1  0  0  0  0
 37 36  1  0  0  0  0
 38 37  2  0  0  0  0
 39 41  1  0  0  0  0
 39 38  1  0  0  0  0
 40 39  2  0  0  0  0
 41 70  1  0  0  0  0
 42 43  1  0  0  0  0
 42 38  1  0  0  0  0
 43 44  2  0  0  0  0
 44 73  1  0  0  0  0
 44 36  1  0  0  0  0
 45 47  1  0  0  0  0
 45 48  1  0  0  0  0
 46 45  2  0  0  0  0
 48 74  1  0  0  0  0
  6 51  1  0  0  0  0
 56 14  1  0  0  0  0
 58 18  1  0  0  0  0
 59 20  1  0  0  0  0
 61 28  1  0  0  0  0
 31 63  1  0  0  0  0
 33 65  1  0  0  0  0
 69 41  1  0  0  0  0
 71 42  1  0  0  0  0
 72 43  1  0  0  0  0
 42 75  1  0  0  0  0
M  CHG  3   3  -1  26  -1  47  -1
M  END
