lig
  Mrv15b2306172516512D          

 75 79  0  0  1  0            999 V2000
   -1.1881   -0.1777    0.0000 P   0  0  1  0  0  0  0  0  0  0  0  0
   -1.9728   -0.4327    0.0000 O   0  0  0  0  0  0  0  0  0  0  0  0
   -0.4035    0.0772    0.0000 O   0  0  0  0  0  0  0  0  0  0  0  0
   -1.4431    0.6069    0.0000 O   0  0  0  0  0  0  0  0  0  0  0  0
   -2.2501    0.7784    0.0000 C   0  0  0  0  0  0  0  0  0  0  0  0
   -2.5050    1.5630    0.0000 C   0  0  1  0  0  0  0  0  0  0  0  0
   -2.0201    2.2305    0.0000 O   0  0  0  0  0  0  0  0  0  0  0  0
   -3.2896    1.8180    0.0000 C   0  0  1  0  0  0  0  0  0  0  0  0
   -3.9571    1.3330    0.0000 O   0  0  0  0  0  0  0  0  0  0  0  0
   -3.2896    2.6430    0.0000 C   0  0  1  0  0  0  0  0  0  0  0  0
   -3.9571    3.1279    0.0000 O   0  0  0  0  0  0  0  0  0  0  0  0
   -2.5050    2.8979    0.0000 C   0  0  2  0  0  0  0  0  0  0  0  0
   -2.2501    3.6825    0.0000 N   0  0  0  0  0  0  0  0  0  0  0  0
   -2.7350    4.3500    0.0000 C   0  0  0  0  0  0  0  0  0  0  0  0
   -2.2501    5.0174    0.0000 N   0  0  0  0  0  0  0  0  0  0  0  0
   -1.4654    4.7625    0.0000 C   0  0  0  0  0  0  0  0  0  0  0  0
   -0.7510    5.1750    0.0000 C   0  0  1  0  0  0  0  0  0  0  0  0
   -0.7510    6.0000    0.0000 N   0  0  0  0  0  0  0  0  0  0  0  0
   -0.0365    4.7625    0.0000 N   0  0  0  0  0  0  0  0  0  0  0  0
   -0.0365    3.9375    0.0000 C   0  0  0  0  0  0  0  0  0  0  0  0
   -0.7510    3.5250    0.0000 N   0  0  0  0  0  0  0  0  0  0  0  0
   -1.4654    3.9375    0.0000 C   0  0  0  0  0  0  0  0  0  0  0  0
   -0.9332   -0.9624    0.0000 O   0  0  0  0  0  0  0  0  0  0  0  0
   -0.1262   -1.1339    0.0000 P   0  0  2  0  0  0  0  0  0  0  0  0
    0.0453   -0.3269    0.0000 O   0  0  0  0  0  0  0  0  0  0  0  0
   -0.2978   -1.9409    0.0000 O   0  0  0  0  0  0  0  0  0  0  0  0
    0.6807   -1.3054    0.0000 O   0  0  0  0  0  0  0  0  0  0  0  0
    0.9357   -2.0900    0.0000 C   0  0  0  0  0  0  0  0  0  0  0  0
    1.7426   -2.2616    0.0000 C   0  0  1  0  0  0  0  0  0  0  0  0
    2.0782   -3.0152    0.0000 O   0  0  0  0  0  0  0  0  0  0  0  0
    2.3557   -1.7095    0.0000 C   0  0  1  0  0  0  0  0  0  0  0  0
    2.2695   -0.8891    0.0000 O   0  0  0  0  0  0  0  0  0  0  0  0
    3.0702   -2.1220    0.0000 C   0  0  1  0  0  0  0  0  0  0  0  0
    3.8239   -1.7865    0.0000 O   0  0  0  0  0  0  0  0  0  0  0  0
    2.8987   -2.9290    0.0000 C   0  0  2  0  0  0  0  0  0  0  0  0
    3.4507   -3.5421    0.0000 N   0  0  0  0  0  0  0  0  0  0  0  0
    3.1958   -4.3267    0.0000 C   0  0  0  0  0  0  0  0  0  0  0  0
    3.7478   -4.9398    0.0000 C   0  0  0  0  0  0  0  0  0  0  0  0
    3.4929   -5.7244    0.0000 C   0  0  0  0  0  0  0  0  0  0  0  0
    4.0449   -6.3375    0.0000 O   0  0  0  0  0  0  0  0  0  0  0  0
    2.6859   -5.8960    0.0000 N   0  0  0  0  0  0  0  0  0  0  0  0
    4.5548   -4.7683    0.0000 C   0  0  0  0  0  0  0  0  0  0  0  0
    4.8097   -3.9837    0.0000 C   0  0  0  0  0  0  0  0  0  0  0  0
    4.2577   -3.3706    0.0000 C   0  0  0  0  0  0  0  0  0  0  0  0
   -3.8708    3.9484    0.0000 P   0  0  1  0  0  0  0  0  0  0  0  0
   -3.0503    3.8621    0.0000 O   0  0  0  0  0  0  0  0  0  0  0  0
   -4.6913    4.0346    0.0000 O   0  0  0  0  0  0  0  0  0  0  0  0
   -3.7846    4.7688    0.0000 O   0  0  0  0  0  0  0  0  0  0  0  0
   -3.0185    0.4783    0.0000 H   0  0  0  0  0  0  0  0  0  0  0  0
   -2.4682   -0.0172    0.0000 H   0  0  0  0  0  0  0  0  0  0  0  0
   -1.6902    1.4340    0.0000 H   0  0  0  0  0  0  0  0  0  0  0  0
   -3.1606    1.0031    0.0000 H   0  0  0  0  0  0  0  0  0  0  0  0
   -4.7763    1.2361    0.0000 H   0  0  0  0  0  0  0  0  0  0  0  0
   -3.1606    3.4578    0.0000 H   0  0  0  0  0  0  0  0  0  0  0  0
   -1.6902    3.0270    0.0000 H   0  0  0  0  0  0  0  0  0  0  0  0
   -3.4154    4.8165    0.0000 H   0  0  0  0  0  0  0  0  0  0  0  0
   -0.0365    6.4125    0.0000 H   0  0  0  0  0  0  0  0  0  0  0  0
   -1.4654    6.4125    0.0000 H   0  0  0  0  0  0  0  0  0  0  0  0
    0.6780    3.5250    0.0000 H   0  0  0  0  0  0  0  0  0  0  0  0
    0.1672   -2.3902    0.0000 H   0  0  0  0  0  0  0  0  0  0  0  0
    0.7175   -2.8857    0.0000 H   0  0  0  0  0  0  0  0  0  0  0  0
    1.2235   -2.9027    0.0000 H   0  0  0  0  0  0  0  0  0  0  0  0
    1.5855   -1.4139    0.0000 H   0  0  0  0  0  0  0  0  0  0  0  0
    2.5952   -0.1311    0.0000 H   0  0  0  0  0  0  0  0  0  0  0  0
    3.7114   -2.6412    0.0000 H   0  0  0  0  0  0  0  0  0  0  0  0
    4.3175   -1.1254    0.0000 H   0  0  0  0  0  0  0  0  0  0  0  0
    2.6030   -3.6992    0.0000 H   0  0  0  0  0  0  0  0  0  0  0  0
    2.5893   -4.8860    0.0000 H   0  0  0  0  0  0  0  0  0  0  0  0
    2.4310   -6.6806    0.0000 H   0  0  0  0  0  0  0  0  0  0  0  0
    2.1339   -5.2829    0.0000 H   0  0  0  0  0  0  0  0  0  0  0  0
    4.7729   -5.5639    0.0000 H   0  0  0  0  0  0  0  0  0  0  0  0
    5.3233   -5.0684    0.0000 H   0  0  0  0  0  0  0  0  0  0  0  0
    5.6167   -3.8121    0.0000 H   0  0  0  0  0  0  0  0  0  0  0  0
    4.8950   -2.8467    0.0000 H   0  0  0  0  0  0  0  0  0  0  0  0
   -4.3748    5.3452    0.0000 H   0  0  0  0  0  0  0  0  0  0  0  0
  1  3  2  0  0  0  0
  1  4  1  0  0  0  0
  1  2  1  6  0  0  0
  1 23  1  0  0  0  0
  4  5  1  0  0  0  0
  5 49  1  0  0  0  0
  5 50  1  0  0  0  0
  6  5  1  0  0  0  0
  6  8  1  1  0  0  0
  7 12  1  0  0  0  0
  7  6  1  0  0  0  0
  8 10  1  6  0  0  0
  8 52  1  6  0  0  0
  8  9  1  0  0  0  0
  9 53  1  0  0  0  0
 10 12  1  1  0  0  0
 10 54  1  6  0  0  0
 11 10  1  0  0  0  0
 11 45  1  0  0  0  0
 12 55  1  1  0  0  0
 12 13  1  6  0  0  0
 13 14  1  0  0  0  0
 14 56  1  0  0  0  0
 14 15  2  0  0  0  0
 16 17  1  0  0  0  0
 16 15  1  0  0  0  0
 17 18  1  1  0  0  0
 18 57  1  0  0  0  0
 18 58  1  0  0  0  0
 19 17  1  0  0  0  0
 20 19  2  0  0  0  0
 21 20  1  0  0  0  0
 21 22  1  0  0  0  0
 22 13  1  0  0  0  0
 22 16  2  0  0  0  0
 23 24  1  0  0  0  0
 24 26  2  0  0  0  0
 24 25  1  6  0  0  0
 27 24  1  0  0  0  0
 28 29  1  0  0  0  0
 28 60  1  0  0  0  0
 28 27  1  0  0  0  0
 29 31  1  1  0  0  0
 29 62  1  1  0  0  0
 30 29  1  0  0  0  0
 31 33  1  6  0  0  0
 31 63  1  6  0  0  0
 31 32  1  0  0  0  0
 32 64  1  0  0  0  0
 33 35  1  1  0  0  0
 34 66  1  0  0  0  0
 34 33  1  0  0  0  0
 35 67  1  1  0  0  0
 35 30  1  0  0  0  0
 35 36  1  6  0  0  0
 37 36  1  0  0  0  0
 37 68  1  0  0  0  0
 38 37  2  0  0  0  0
 39 38  1  0  0  0  0
 39 41  1  0  0  0  0
 40 39  2  0  0  0  0
 41 70  1  0  0  0  0
 42 71  1  0  0  0  0
 42 43  1  0  0  0  0
 42 38  1  0  0  0  0
 43 44  2  0  0  0  0
 44 74  1  0  0  0  0
 44 36  1  0  0  0  0
 45 46  2  0  0  0  0
 45 47  1  6  0  0  0
 45 48  1  0  0  0  0
 48 75  1  0  0  0  0
  6 51  1  1  0  0  0
 59 20  1  0  0  0  0
 61 28  1  0  0  0  0
 33 65  1  6  0  0  0
 69 41  1  0  0  0  0
 72 42  1  0  0  0  0
 73 43  1  0  0  0  0
M  END
