@<TRIPOS>MOLECULE
lig
 75 79 0 0 0
SMALL
GASTEIGER

@<TRIPOS>ATOM
      1  P1        -6.0330    4.0620    6.9050 P.3     1  HET1        0.2182
      2  O1        -5.8240    2.5880    7.1640 O.3     1  HET1       -0.4371
      3  O2        -5.6410    4.6840    5.5800 O.2     1  HET1       -0.5170
      4  O3        -7.6380    4.3290    7.0480 O.3     1  HET1       -0.3246
      5  C1        -8.2290    3.7670    8.2050 C.3     1  HET1        0.0836
      6  C2        -9.7380    3.7980    8.0670 C.3     1  HET1        0.1133
      7  O4       -10.2240    2.7250    7.2310 O.3     1  HET1       -0.3456
      8  C3       -10.4350    3.5900    9.3880 C.3     1  HET1        0.1142
      9  O5       -10.3570    4.7150   10.2340 O.3     1  HET1       -0.3864
     10  C4       -11.8350    3.2360    8.9450 C.3     1  HET1        0.1391
     11  O6       -12.4990    4.3880    8.4240 O.3     1  HET1       -0.3170
     12  C5       -11.5170    2.3340    7.7540 C.3     1  HET1        0.1672
     13  N1       -11.4430    0.9300    8.1140 N.ar    1  HET1       -0.2877
     14  C6       -10.3210    0.2270    8.4670 C.ar    1  HET1        0.0999
     15  N2       -10.5870   -1.0440    8.7060 N.ar    1  HET1       -0.2346
     16  C7       -11.9440   -1.1610    8.4940 C.ar    1  HET1        0.1287
     17  C8       -12.8320   -2.2450    8.5940 C.3     1  HET1        0.2004
     18  N3       -12.3880   -3.5230    8.9730 N.3     1  HET1       -0.2985
     19  N4       -14.1500   -2.0310    8.3140 N.2     1  HET1       -0.2420
     20  C9       -14.5330   -0.7870    7.9530 C.2     1  HET1        0.1049
     21  N5       -13.7630    0.2960    7.7870 N.pl3   1  HET1       -0.1840
     22  C10      -12.4860    0.0510    8.1020 C.ar    1  HET1        0.1528
     23  O7        -5.5340    4.9760    8.1210 O.3     1  HET1       -0.2703
     24  P2        -4.0970    5.1600    8.7960 P.3     1  HET1        0.2182
     25  O8        -3.7600    4.0170    9.7260 O.3     1  HET1       -0.4371
     26  O9        -3.9970    6.5760    9.3460 O.2     1  HET1       -0.5170
     27  O10       -3.1010    5.0980    7.5170 O.3     1  HET1       -0.3246
     28  C11       -3.0140    6.3070    6.7840 C.3     1  HET1        0.0836
     29  C12       -1.5920    6.8390    6.9260 C.3     1  HET1        0.1131
     30  O11       -0.6530    5.9500    6.2710 O.3     1  HET1       -0.3476
     31  C13       -1.4600    8.1930    6.2410 C.3     1  HET1        0.1133
     32  O12       -0.3700    8.9020    6.8410 O.3     1  HET1       -0.3864
     33  C14       -1.0770    7.7810    4.8380 C.3     1  HET1        0.1265
     34  O13       -0.4010    8.8150    4.1320 O.3     1  HET1       -0.3849
     35  C15       -0.1610    6.6130    5.1120 C.3     1  HET1        0.1574
     36  N6        -0.0130    5.7120    3.9800 N.pl3   1  HET1       -0.2846
     37  C16        1.2600    5.3590    3.5630 C.2     1  HET1        0.0071
     38  C17        1.4880    4.4020    2.6480 C.2     1  HET1        0.0318
     39  C18        2.8510    4.0540    2.1970 C.2     1  HET1        0.2390
     40  O14        3.0460    3.1970    1.3370 O.2     1  HET1       -0.2707
     41  N7         3.8560    4.7720    2.7980 N.am    1  HET1       -0.3256
     42  C19        0.3500    3.6350    2.0420 C.3     1  HET1       -0.0019
     43  C20       -0.9980    4.0600    2.5440 C.2     1  HET1       -0.0654
     44  C21       -1.1090    5.0250    3.4690 C.2     1  HET1       -0.0049
     45  P3       -13.8900    4.7750    9.1610 P.3     1  HET1        0.2104
     46  O15      -14.6580    5.7050    8.2530 O.2     1  HET1       -0.5173
     47  O16      -14.4950    3.4940    9.6870 O.3     1  HET1       -0.4374
     48  O17      -13.2950    5.6340   10.4110 O.3     1  HET1       -0.3436
     49  H1        -7.8930    2.7250    8.3200 H       1  HET1        0.0591
     50  H2        -7.9300    4.3470    9.0900 H       1  HET1        0.0591
     51  H3        -9.9540    4.7880    7.6400 H       1  HET1        0.0647
     52  H4        -9.9810    2.8120   10.0190 H       1  HET1        0.0648
     53  H5       -10.3770    4.4200   11.1790 H       1  HET1        0.2100
     54  H6       -12.4640    2.8150    9.7430 H       1  HET1        0.0673
     55  H7       -12.3270    2.4520    7.0190 H       1  HET1        0.0867
     56  H8        -9.3170    0.6690    8.5430 H       1  HET1        0.1030
     57  H9       -13.0580   -4.3030    9.0390 H       1  HET1        0.1209
     58  H10      -11.3930   -3.6810    9.1860 H       1  HET1        0.1209
     59  H11      -15.6080   -0.6460    7.7720 H       1  HET1        0.1015
     60  H12       -3.7290    7.0400    7.1860 H       1  HET1        0.0591
     61  H13       -3.2550    6.1310    5.7250 H       1  HET1        0.0591
     62  H14       -1.3770    6.9190    8.0020 H       1  HET1        0.0647
     63  H15       -2.3520    8.8340    6.2990 H       1  HET1        0.0647
     64  H16       -0.4470    8.8520    7.8270 H       1  HET1        0.2100
     65  H17       -1.9400    7.5460    4.1980 H       1  HET1        0.0663
     66  H18        0.0090    9.4420    4.7790 H       1  HET1        0.2101
     67  H19        0.8590    6.9860    5.2880 H       1  HET1        0.0840
     68  H20        2.1210    5.8850    3.9990 H       1  HET1        0.0788
     69  H21        4.8380    4.5960    2.5430 H       1  HET1        0.1452
     70  H22        3.6270    5.4870    3.5030 H       1  HET1        0.1452
     71  H23        0.4870    2.5680    2.2740 H       1  HET1        0.0358
     72  H24        0.3680    3.8340    0.9600 H       1  HET1        0.0358
     73  H25       -1.9030    3.5760    2.1500 H       1  HET1        0.0588
     74  H26       -2.1120    5.2850    3.8400 H       1  HET1        0.0781
     75  H27      -13.5830    5.2180   11.2620 H       1  HET1        0.2176
@<TRIPOS>BOND
     1    72    42    1
     2    40    39    2
     3    42    71    1
     4    42    43    1
     5    42    38    1
     6    73    43    1
     7    39    38    1
     8    39    41   am
     9    69    41    1
    10    43    44    2
    11    38    37    2
    12    41    70    1
    13    44    74    1
    14    44    36    1
    15    37    36    1
    16    37    68    1
    17    36    35    1
    18    34    66    1
    19    34    33    1
    20    65    33    1
    21    33    35    1
    22    33    31    1
    23    35    67    1
    24    35    30    1
    25     3     1    2
    26    61    28    1
    27    31    63    1
    28    31    32    1
    29    31    29    1
    30    30    29    1
    31    28    29    1
    32    28    60    1
    33    28    27    1
    34    32    64    1
    35     1     4    1
    36     1     2    1
    37     1    23    1
    38    29    62    1
    39    55    12    1
    40     4     5    1
    41     7    12    1
    42     7     6    1
    43    27    24    1
    44    51     6    1
    45    12    13    1
    46    12    10    1
    47    59    20    1
    48    21    20    1
    49    21    22    1
    50    20    19    2
    51     6     5    1
    52     6     8    1
    53    22    13   ar
    54    22    16   ar
    55    13    14   ar
    56    23    24    1
    57     5    49    1
    58     5    50    1
    59    46    45    2
    60    19    17    1
    61    11    10    1
    62    11    45    1
    63    14    56    1
    64    14    15   ar
    65    16    17    1
    66    16    15   ar
    67    17    18    1
    68    24    26    2
    69    24    25    1
    70    10     8    1
    71    10    54    1
    72    18    57    1
    73    18    58    1
    74    45    47    1
    75    45    48    1
    76     8    52    1
    77     8     9    1
    78     9    53    1
    79    48    75    1
