lig
  Mrv15b2306172516522D          

459306  0  0  0  0            999 V2000
    0.0000   -0.2750    0.0000 O   0  0  0  0  0  0  0  0  0  0  0  0
   -0.7145    0.1375    0.0000 H   0  0  0  0  0  0  0  0  0  0  0  0
    0.7145    0.1375    0.0000 H   0  0  0  0  0  0  0  0  0  0  0  0
    3.1968   -0.2750    0.0000 O   0  0  0  0  0  0  0  0  0  0  0  0
    2.4823    0.1375    0.0000 H   0  0  0  0  0  0  0  0  0  0  0  0
    3.9113    0.1375    0.0000 H   0  0  0  0  0  0  0  0  0  0  0  0
    6.3936    0.2750    0.0000 O   0  0  0  0  0  0  0  0  0  0  0  0
    5.6791   -0.1375    0.0000 H   0  0  0  0  0  0  0  0  0  0  0  0
    7.1081   -0.1375    0.0000 H   0  0  0  0  0  0  0  0  0  0  0  0
    9.5904    0.2750    0.0000 O   0  0  0  0  0  0  0  0  0  0  0  0
    8.8759   -0.1375    0.0000 H   0  0  0  0  0  0  0  0  0  0  0  0
   10.3049   -0.1375    0.0000 H   0  0  0  0  0  0  0  0  0  0  0  0
   12.7872   -0.2750    0.0000 O   0  0  0  0  0  0  0  0  0  0  0  0
   12.0727    0.1375    0.0000 H   0  0  0  0  0  0  0  0  0  0  0  0
   13.5017    0.1375    0.0000 H   0  0  0  0  0  0  0  0  0  0  0  0
   15.9840    0.2750    0.0000 O   0  0  0  0  0  0  0  0  0  0  0  0
   15.2695   -0.1375    0.0000 H   0  0  0  0  0  0  0  0  0  0  0  0
   16.6985   -0.1375    0.0000 H   0  0  0  0  0  0  0  0  0  0  0  0
   19.1808   -0.2750    0.0000 O   0  0  0  0  0  0  0  0  0  0  0  0
   18.4663    0.1375    0.0000 H   0  0  0  0  0  0  0  0  0  0  0  0
   19.8953    0.1375    0.0000 H   0  0  0  0  0  0  0  0  0  0  0  0
   22.3776   -0.2750    0.0000 O   0  0  0  0  0  0  0  0  0  0  0  0
   21.6631    0.1375    0.0000 H   0  0  0  0  0  0  0  0  0  0  0  0
   23.0921    0.1375    0.0000 H   0  0  0  0  0  0  0  0  0  0  0  0
   25.5744   -0.2750    0.0000 O   0  0  0  0  0  0  0  0  0  0  0  0
   24.8599    0.1375    0.0000 H   0  0  0  0  0  0  0  0  0  0  0  0
   26.2889    0.1375    0.0000 H   0  0  0  0  0  0  0  0  0  0  0  0
   28.7712   -0.2750    0.0000 O   0  0  0  0  0  0  0  0  0  0  0  0
   28.0567    0.1375    0.0000 H   0  0  0  0  0  0  0  0  0  0  0  0
   29.4857    0.1375    0.0000 H   0  0  0  0  0  0  0  0  0  0  0  0
   31.9680    0.2750    0.0000 O   0  0  0  0  0  0  0  0  0  0  0  0
   31.2535   -0.1375    0.0000 H   0  0  0  0  0  0  0  0  0  0  0  0
   32.6825   -0.1375    0.0000 H   0  0  0  0  0  0  0  0  0  0  0  0
   35.1648    0.2750    0.0000 O   0  0  0  0  0  0  0  0  0  0  0  0
   34.4503   -0.1375    0.0000 H   0  0  0  0  0  0  0  0  0  0  0  0
   35.8793   -0.1375    0.0000 H   0  0  0  0  0  0  0  0  0  0  0  0
   38.3616   -0.2750    0.0000 O   0  0  0  0  0  0  0  0  0  0  0  0
   37.6471    0.1375    0.0000 H   0  0  0  0  0  0  0  0  0  0  0  0
   39.0761    0.1375    0.0000 H   0  0  0  0  0  0  0  0  0  0  0  0
    0.0000   -2.4750    0.0000 O   0  0  0  0  0  0  0  0  0  0  0  0
   -0.7145   -2.0625    0.0000 H   0  0  0  0  0  0  0  0  0  0  0  0
    0.7145   -2.0625    0.0000 H   0  0  0  0  0  0  0  0  0  0  0  0
    3.1968   -1.9250    0.0000 O   0  0  0  0  0  0  0  0  0  0  0  0
    2.4823   -2.3375    0.0000 H   0  0  0  0  0  0  0  0  0  0  0  0
    3.9113   -2.3375    0.0000 H   0  0  0  0  0  0  0  0  0  0  0  0
    6.3936   -2.4750    0.0000 O   0  0  0  0  0  0  0  0  0  0  0  0
    5.6791   -2.0625    0.0000 H   0  0  0  0  0  0  0  0  0  0  0  0
    7.1081   -2.0625    0.0000 H   0  0  0  0  0  0  0  0  0  0  0  0
    9.5904   -2.4750    0.0000 O   0  0  0  0  0  0  0  0  0  0  0  0
    8.8759   -2.0625    0.0000 H   0  0  0  0  0  0  0  0  0  0  0  0
   10.3049   -2.0625    0.0000 H   0  0  0  0  0  0  0  0  0  0  0  0
   12.7872   -1.9250    0.0000 O   0  0  0  0  0  0  0  0  0  0  0  0
   12.0727   -2.3375    0.0000 H   0  0  0  0  0  0  0  0  0  0  0  0
   13.5017   -2.3375    0.0000 H   0  0  0  0  0  0  0  0  0  0  0  0
   15.9840   -1.9250    0.0000 O   0  0  0  0  0  0  0  0  0  0  0  0
   15.2695   -2.3375    0.0000 H   0  0  0  0  0  0  0  0  0  0  0  0
   16.6985   -2.3375    0.0000 H   0  0  0  0  0  0  0  0  0  0  0  0
   19.1808   -2.4750    0.0000 O   0  0  0  0  0  0  0  0  0  0  0  0
   18.4663   -2.0625    0.0000 H   0  0  0  0  0  0  0  0  0  0  0  0
   19.8953   -2.0625    0.0000 H   0  0  0  0  0  0  0  0  0  0  0  0
   22.3776   -2.4750    0.0000 O   0  0  0  0  0  0  0  0  0  0  0  0
   21.6631   -2.0625    0.0000 H   0  0  0  0  0  0  0  0  0  0  0  0
   23.0921   -2.0625    0.0000 H   0  0  0  0  0  0  0  0  0  0  0  0
   25.5744   -2.4750    0.0000 O   0  0  0  0  0  0  0  0  0  0  0  0
   24.8599   -2.0625    0.0000 H   0  0  0  0  0  0  0  0  0  0  0  0
   26.2889   -2.0625    0.0000 H   0  0  0  0  0  0  0  0  0  0  0  0
   28.7712   -1.9250    0.0000 O   0  0  0  0  0  0  0  0  0  0  0  0
   28.0567   -2.3375    0.0000 H   0  0  0  0  0  0  0  0  0  0  0  0
   29.4857   -2.3375    0.0000 H   0  0  0  0  0  0  0  0  0  0  0  0
   31.9680   -1.9250    0.0000 O   0  0  0  0  0  0  0  0  0  0  0  0
   31.2535   -2.3375    0.0000 H   0  0  0  0  0  0  0  0  0  0  0  0
   32.6825   -2.3375    0.0000 H   0  0  0  0  0  0  0  0  0  0  0  0
   35.1648   -2.4750    0.0000 O   0  0  0  0  0  0  0  0  0  0  0  0
   34.4503   -2.0625    0.0000 H   0  0  0  0  0  0  0  0  0  0  0  0
   35.8793   -2.0625    0.0000 H   0  0  0  0  0  0  0  0  0  0  0  0
   38.3616   -2.4750    0.0000 O   0  0  0  0  0  0  0  0  0  0  0  0
   37.6471   -2.0625    0.0000 H   0  0  0  0  0  0  0  0  0  0  0  0
   39.0761   -2.0625    0.0000 H   0  0  0  0  0  0  0  0  0  0  0  0
    0.0000   -4.1250    0.0000 O   0  0  0  0  0  0  0  0  0  0  0  0
   -0.7145   -4.5375    0.0000 H   0  0  0  0  0  0  0  0  0  0  0  0
    0.7145   -4.5375    0.0000 H   0  0  0  0  0  0  0  0  0  0  0  0
    3.1968   -4.1250    0.0000 O   0  0  0  0  0  0  0  0  0  0  0  0
    2.4823   -4.5375    0.0000 H   0  0  0  0  0  0  0  0  0  0  0  0
    3.9113   -4.5375    0.0000 H   0  0  0  0  0  0  0  0  0  0  0  0
    6.3936   -4.1250    0.0000 O   0  0  0  0  0  0  0  0  0  0  0  0
    5.6791   -4.5375    0.0000 H   0  0  0  0  0  0  0  0  0  0  0  0
    7.1081   -4.5375    0.0000 H   0  0  0  0  0  0  0  0  0  0  0  0
    9.5904   -4.1250    0.0000 O   0  0  0  0  0  0  0  0  0  0  0  0
    8.8759   -4.5375    0.0000 H   0  0  0  0  0  0  0  0  0  0  0  0
   10.3049   -4.5375    0.0000 H   0  0  0  0  0  0  0  0  0  0  0  0
   12.7872   -4.6750    0.0000 O   0  0  0  0  0  0  0  0  0  0  0  0
   12.0727   -4.2625    0.0000 H   0  0  0  0  0  0  0  0  0  0  0  0
   13.5017   -4.2625    0.0000 H   0  0  0  0  0  0  0  0  0  0  0  0
   15.9840   -4.6750    0.0000 O   0  0  0  0  0  0  0  0  0  0  0  0
   15.2695   -4.2625    0.0000 H   0  0  0  0  0  0  0  0  0  0  0  0
   16.6985   -4.2625    0.0000 H   0  0  0  0  0  0  0  0  0  0  0  0
   19.1808   -4.1250    0.0000 O   0  0  0  0  0  0  0  0  0  0  0  0
   18.4663   -4.5375    0.0000 H   0  0  0  0  0  0  0  0  0  0  0  0
   19.8953   -4.5375    0.0000 H   0  0  0  0  0  0  0  0  0  0  0  0
   22.3776   -4.1250    0.0000 O   0  0  0  0  0  0  0  0  0  0  0  0
   21.6631   -4.5375    0.0000 H   0  0  0  0  0  0  0  0  0  0  0  0
   23.0921   -4.5375    0.0000 H   0  0  0  0  0  0  0  0  0  0  0  0
   25.5744   -4.6750    0.0000 O   0  0  0  0  0  0  0  0  0  0  0  0
   24.8599   -4.2625    0.0000 H   0  0  0  0  0  0  0  0  0  0  0  0
   26.2889   -4.2625    0.0000 H   0  0  0  0  0  0  0  0  0  0  0  0
   28.7712   -4.1250    0.0000 O   0  0  0  0  0  0  0  0  0  0  0  0
   28.0567   -4.5375    0.0000 H   0  0  0  0  0  0  0  0  0  0  0  0
   29.4857   -4.5375    0.0000 H   0  0  0  0  0  0  0  0  0  0  0  0
   31.9680   -4.1250    0.0000 O   0  0  0  0  0  0  0  0  0  0  0  0
   31.2535   -4.5375    0.0000 H   0  0  0  0  0  0  0  0  0  0  0  0
   32.6825   -4.5375    0.0000 H   0  0  0  0  0  0  0  0  0  0  0  0
   35.1648   -4.6750    0.0000 O   0  0  0  0  0  0  0  0  0  0  0  0
   34.4503   -4.2625    0.0000 H   0  0  0  0  0  0  0  0  0  0  0  0
   35.8793   -4.2625    0.0000 H   0  0  0  0  0  0  0  0  0  0  0  0
   38.3616   -4.1250    0.0000 O   0  0  0  0  0  0  0  0  0  0  0  0
   37.6471   -4.5375    0.0000 H   0  0  0  0  0  0  0  0  0  0  0  0
   39.0761   -4.5375    0.0000 H   0  0  0  0  0  0  0  0  0  0  0  0
    0.0000   -6.8750    0.0000 O   0  0  0  0  0  0  0  0  0  0  0  0
   -0.7145   -6.4625    0.0000 H   0  0  0  0  0  0  0  0  0  0  0  0
    0.7145   -6.4625    0.0000 H   0  0  0  0  0  0  0  0  0  0  0  0
    3.1968   -6.3250    0.0000 O   0  0  0  0  0  0  0  0  0  0  0  0
    2.4823   -6.7375    0.0000 H   0  0  0  0  0  0  0  0  0  0  0  0
    3.9113   -6.7375    0.0000 H   0  0  0  0  0  0  0  0  0  0  0  0
    6.3936   -6.8750    0.0000 O   0  0  0  0  0  0  0  0  0  0  0  0
    5.6791   -6.4625    0.0000 H   0  0  0  0  0  0  0  0  0  0  0  0
    7.1081   -6.4625    0.0000 H   0  0  0  0  0  0  0  0  0  0  0  0
    9.5904   -6.8750    0.0000 O   0  0  0  0  0  0  0  0  0  0  0  0
    8.8759   -6.4625    0.0000 H   0  0  0  0  0  0  0  0  0  0  0  0
   10.3049   -6.4625    0.0000 H   0  0  0  0  0  0  0  0  0  0  0  0
   12.7872   -6.3250    0.0000 O   0  0  0  0  0  0  0  0  0  0  0  0
   12.0727   -6.7375    0.0000 H   0  0  0  0  0  0  0  0  0  0  0  0
   13.5017   -6.7375    0.0000 H   0  0  0  0  0  0  0  0  0  0  0  0
   15.9840   -6.3250    0.0000 O   0  0  0  0  0  0  0  0  0  0  0  0
   15.2695   -6.7375    0.0000 H   0  0  0  0  0  0  0  0  0  0  0  0
   16.6985   -6.7375    0.0000 H   0  0  0  0  0  0  0  0  0  0  0  0
   19.1808   -6.8750    0.0000 O   0  0  0  0  0  0  0  0  0  0  0  0
   18.4663   -6.4625    0.0000 H   0  0  0  0  0  0  0  0  0  0  0  0
   19.8953   -6.4625    0.0000 H   0  0  0  0  0  0  0  0  0  0  0  0
   22.3776   -6.3250    0.0000 O   0  0  0  0  0  0  0  0  0  0  0  0
   21.6631   -6.7375    0.0000 H   0  0  0  0  0  0  0  0  0  0  0  0
   23.0921   -6.7375    0.0000 H   0  0  0  0  0  0  0  0  0  0  0  0
   25.5744   -6.8750    0.0000 O   0  0  0  0  0  0  0  0  0  0  0  0
   24.8599   -6.4625    0.0000 H   0  0  0  0  0  0  0  0  0  0  0  0
   26.2889   -6.4625    0.0000 H   0  0  0  0  0  0  0  0  0  0  0  0
   28.7712   -6.3250    0.0000 O   0  0  0  0  0  0  0  0  0  0  0  0
   28.0567   -6.7375    0.0000 H   0  0  0  0  0  0  0  0  0  0  0  0
   29.4857   -6.7375    0.0000 H   0  0  0  0  0  0  0  0  0  0  0  0
   31.9680   -6.8750    0.0000 O   0  0  0  0  0  0  0  0  0  0  0  0
   31.2535   -6.4625    0.0000 H   0  0  0  0  0  0  0  0  0  0  0  0
   32.6825   -6.4625    0.0000 H   0  0  0  0  0  0  0  0  0  0  0  0
   35.1648   -6.8750    0.0000 O   0  0  0  0  0  0  0  0  0  0  0  0
   34.4503   -6.4625    0.0000 H   0  0  0  0  0  0  0  0  0  0  0  0
   35.8793   -6.4625    0.0000 H   0  0  0  0  0  0  0  0  0  0  0  0
   38.3616   -6.8750    0.0000 O   0  0  0  0  0  0  0  0  0  0  0  0
   37.6471   -6.4625    0.0000 H   0  0  0  0  0  0  0  0  0  0  0  0
   39.0761   -6.4625    0.0000 H   0  0  0  0  0  0  0  0  0  0  0  0
    0.0000   -9.0750    0.0000 O   0  0  0  0  0  0  0  0  0  0  0  0
   -0.7145   -8.6625    0.0000 H   0  0  0  0  0  0  0  0  0  0  0  0
    0.7145   -8.6625    0.0000 H   0  0  0  0  0  0  0  0  0  0  0  0
    3.1968   -9.0750    0.0000 O   0  0  0  0  0  0  0  0  0  0  0  0
    2.4823   -8.6625    0.0000 H   0  0  0  0  0  0  0  0  0  0  0  0
    3.9113   -8.6625    0.0000 H   0  0  0  0  0  0  0  0  0  0  0  0
    6.3936   -9.0750    0.0000 O   0  0  0  0  0  0  0  0  0  0  0  0
    5.6791   -8.6625    0.0000 H   0  0  0  0  0  0  0  0  0  0  0  0
    7.1081   -8.6625    0.0000 H   0  0  0  0  0  0  0  0  0  0  0  0
    9.5904   -9.0750    0.0000 O   0  0  0  0  0  0  0  0  0  0  0  0
    8.8759   -8.6625    0.0000 H   0  0  0  0  0  0  0  0  0  0  0  0
   10.3049   -8.6625    0.0000 H   0  0  0  0  0  0  0  0  0  0  0  0
   12.7872   -8.5250    0.0000 O   0  0  0  0  0  0  0  0  0  0  0  0
   12.0727   -8.9375    0.0000 H   0  0  0  0  0  0  0  0  0  0  0  0
   13.5017   -8.9375    0.0000 H   0  0  0  0  0  0  0  0  0  0  0  0
   15.9840   -8.5250    0.0000 O   0  0  0  0  0  0  0  0  0  0  0  0
   15.2695   -8.9375    0.0000 H   0  0  0  0  0  0  0  0  0  0  0  0
   16.6985   -8.9375    0.0000 H   0  0  0  0  0  0  0  0  0  0  0  0
   19.1808   -9.0750    0.0000 O   0  0  0  0  0  0  0  0  0  0  0  0
   18.4663   -8.6625    0.0000 H   0  0  0  0  0  0  0  0  0  0  0  0
   19.8953   -8.6625    0.0000 H   0  0  0  0  0  0  0  0  0  0  0  0
   22.3776   -9.0750    0.0000 O   0  0  0  0  0  0  0  0  0  0  0  0
   21.6631   -8.6625    0.0000 H   0  0  0  0  0  0  0  0  0  0  0  0
   23.0921   -8.6625    0.0000 H   0  0  0  0  0  0  0  0  0  0  0  0
   25.5744   -8.5250    0.0000 O   0  0  0  0  0  0  0  0  0  0  0  0
   24.8599   -8.9375    0.0000 H   0  0  0  0  0  0  0  0  0  0  0  0
   26.2889   -8.9375    0.0000 H   0  0  0  0  0  0  0  0  0  0  0  0
   28.7712   -8.5250    0.0000 O   0  0  0  0  0  0  0  0  0  0  0  0
   28.0567   -8.9375    0.0000 H   0  0  0  0  0  0  0  0  0  0  0  0
   29.4857   -8.9375    0.0000 H   0  0  0  0  0  0  0  0  0  0  0  0
   31.9680   -8.5250    0.0000 O   0  0  0  0  0  0  0  0  0  0  0  0
   31.2535   -8.9375    0.0000 H   0  0  0  0  0  0  0  0  0  0  0  0
   32.6825   -8.9375    0.0000 H   0  0  0  0  0  0  0  0  0  0  0  0
   35.1648   -9.0750    0.0000 O   0  0  0  0  0  0  0  0  0  0  0  0
   34.4503   -8.6625    0.0000 H   0  0  0  0  0  0  0  0  0  0  0  0
   35.8793   -8.6625    0.0000 H   0  0  0  0  0  0  0  0  0  0  0  0
   38.3616   -9.0750    0.0000 O   0  0  0  0  0  0  0  0  0  0  0  0
   37.6471   -8.6625    0.0000 H   0  0  0  0  0  0  0  0  0  0  0  0
   39.0761   -8.6625    0.0000 H   0  0  0  0  0  0  0  0  0  0  0  0
   -0.0000  -11.2750    0.0000 O   0  0  0  0  0  0  0  0  0  0  0  0
   -0.7145  -10.8625    0.0000 H   0  0  0  0  0  0  0  0  0  0  0  0
    0.7145  -10.8625    0.0000 H   0  0  0  0  0  0  0  0  0  0  0  0
    3.1968  -10.7250    0.0000 O   0  0  0  0  0  0  0  0  0  0  0  0
    2.4823  -11.1375    0.0000 H   0  0  0  0  0  0  0  0  0  0  0  0
    3.9113  -11.1375    0.0000 H   0  0  0  0  0  0  0  0  0  0  0  0
    6.3936  -11.2750    0.0000 O   0  0  0  0  0  0  0  0  0  0  0  0
    5.6791  -10.8625    0.0000 H   0  0  0  0  0  0  0  0  0  0  0  0
    7.1081  -10.8625    0.0000 H   0  0  0  0  0  0  0  0  0  0  0  0
    9.5904  -10.7250    0.0000 O   0  0  0  0  0  0  0  0  0  0  0  0
    8.8759  -11.1375    0.0000 H   0  0  0  0  0  0  0  0  0  0  0  0
   10.3049  -11.1375    0.0000 H   0  0  0  0  0  0  0  0  0  0  0  0
   12.7872  -11.2750    0.0000 O   0  0  0  0  0  0  0  0  0  0  0  0
   12.0727  -10.8625    0.0000 H   0  0  0  0  0  0  0  0  0  0  0  0
   13.5017  -10.8625    0.0000 H   0  0  0  0  0  0  0  0  0  0  0  0
   15.9840  -10.7250    0.0000 O   0  0  0  0  0  0  0  0  0  0  0  0
   15.2695  -11.1375    0.0000 H   0  0  0  0  0  0  0  0  0  0  0  0
   16.6985  -11.1375    0.0000 H   0  0  0  0  0  0  0  0  0  0  0  0
   19.1808  -10.7250    0.0000 O   0  0  0  0  0  0  0  0  0  0  0  0
   18.4663  -11.1375    0.0000 H   0  0  0  0  0  0  0  0  0  0  0  0
   19.8953  -11.1375    0.0000 H   0  0  0  0  0  0  0  0  0  0  0  0
   22.3776  -10.7250    0.0000 O   0  0  0  0  0  0  0  0  0  0  0  0
   21.6631  -11.1375    0.0000 H   0  0  0  0  0  0  0  0  0  0  0  0
   23.0921  -11.1375    0.0000 H   0  0  0  0  0  0  0  0  0  0  0  0
   25.5744  -11.2750    0.0000 O   0  0  0  0  0  0  0  0  0  0  0  0
   24.8599  -10.8625    0.0000 H   0  0  0  0  0  0  0  0  0  0  0  0
   26.2889  -10.8625    0.0000 H   0  0  0  0  0  0  0  0  0  0  0  0
   28.7712  -10.7250    0.0000 O   0  0  0  0  0  0  0  0  0  0  0  0
   28.0567  -11.1375    0.0000 H   0  0  0  0  0  0  0  0  0  0  0  0
   29.4857  -11.1375    0.0000 H   0  0  0  0  0  0  0  0  0  0  0  0
   31.9680  -11.2750    0.0000 O   0  0  0  0  0  0  0  0  0  0  0  0
   31.2535  -10.8625    0.0000 H   0  0  0  0  0  0  0  0  0  0  0  0
   32.6825  -10.8625    0.0000 H   0  0  0  0  0  0  0  0  0  0  0  0
   35.1648  -10.7250    0.0000 O   0  0  0  0  0  0  0  0  0  0  0  0
   34.4503  -11.1375    0.0000 H   0  0  0  0  0  0  0  0  0  0  0  0
   35.8793  -11.1375    0.0000 H   0  0  0  0  0  0  0  0  0  0  0  0
   38.3616  -11.2750    0.0000 O   0  0  0  0  0  0  0  0  0  0  0  0
   37.6471  -10.8625    0.0000 H   0  0  0  0  0  0  0  0  0  0  0  0
   39.0761  -10.8625    0.0000 H   0  0  0  0  0  0  0  0  0  0  0  0
   -0.0000  -12.9250    0.0000 O   0  0  0  0  0  0  0  0  0  0  0  0
   -0.7145  -13.3375    0.0000 H   0  0  0  0  0  0  0  0  0  0  0  0
    0.7145  -13.3375    0.0000 H   0  0  0  0  0  0  0  0  0  0  0  0
    3.1968  -13.4750    0.0000 O   0  0  0  0  0  0  0  0  0  0  0  0
    2.4823  -13.0625    0.0000 H   0  0  0  0  0  0  0  0  0  0  0  0
    3.9113  -13.0625    0.0000 H   0  0  0  0  0  0  0  0  0  0  0  0
    6.3936  -13.4750    0.0000 O   0  0  0  0  0  0  0  0  0  0  0  0
    5.6791  -13.0625    0.0000 H   0  0  0  0  0  0  0  0  0  0  0  0
    7.1081  -13.0625    0.0000 H   0  0  0  0  0  0  0  0  0  0  0  0
    9.5904  -12.9250    0.0000 O   0  0  0  0  0  0  0  0  0  0  0  0
    8.8759  -13.3375    0.0000 H   0  0  0  0  0  0  0  0  0  0  0  0
   10.3049  -13.3375    0.0000 H   0  0  0  0  0  0  0  0  0  0  0  0
   12.7872  -12.9250    0.0000 O   0  0  0  0  0  0  0  0  0  0  0  0
   12.0727  -13.3375    0.0000 H   0  0  0  0  0  0  0  0  0  0  0  0
   13.5017  -13.3375    0.0000 H   0  0  0  0  0  0  0  0  0  0  0  0
   15.9840  -13.4750    0.0000 O   0  0  0  0  0  0  0  0  0  0  0  0
   15.2695  -13.0625    0.0000 H   0  0  0  0  0  0  0  0  0  0  0  0
   16.6985  -13.0625    0.0000 H   0  0  0  0  0  0  0  0  0  0  0  0
   19.1808  -12.9250    0.0000 O   0  0  0  0  0  0  0  0  0  0  0  0
   18.4663  -13.3375    0.0000 H   0  0  0  0  0  0  0  0  0  0  0  0
   19.8953  -13.3375    0.0000 H   0  0  0  0  0  0  0  0  0  0  0  0
   22.3776  -12.9250    0.0000 O   0  0  0  0  0  0  0  0  0  0  0  0
   21.6631  -13.3375    0.0000 H   0  0  0  0  0  0  0  0  0  0  0  0
   23.0921  -13.3375    0.0000 H   0  0  0  0  0  0  0  0  0  0  0  0
   25.5744  -12.9250    0.0000 O   0  0  0  0  0  0  0  0  0  0  0  0
   24.8599  -13.3375    0.0000 H   0  0  0  0  0  0  0  0  0  0  0  0
   26.2889  -13.3375    0.0000 H   0  0  0  0  0  0  0  0  0  0  0  0
   28.7712  -13.4750    0.0000 O   0  0  0  0  0  0  0  0  0  0  0  0
   28.0567  -13.0625    0.0000 H   0  0  0  0  0  0  0  0  0  0  0  0
   29.4857  -13.0625    0.0000 H   0  0  0  0  0  0  0  0  0  0  0  0
   31.9680  -12.9250    0.0000 O   0  0  0  0  0  0  0  0  0  0  0  0
   31.2535  -13.3375    0.0000 H   0  0  0  0  0  0  0  0  0  0  0  0
   32.6825  -13.3375    0.0000 H   0  0  0  0  0  0  0  0  0  0  0  0
   35.1648  -12.9250    0.0000 O   0  0  0  0  0  0  0  0  0  0  0  0
   34.4503  -13.3375    0.0000 H   0  0  0  0  0  0  0  0  0  0  0  0
   35.8793  -13.3375    0.0000 H   0  0  0  0  0  0  0  0  0  0  0  0
   38.3616  -13.4750    0.0000 O   0  0  0  0  0  0  0  0  0  0  0  0
   37.6471  -13.0625    0.0000 H   0  0  0  0  0  0  0  0  0  0  0  0
   39.0761  -13.0625    0.0000 H   0  0  0  0  0  0  0  0  0  0  0  0
   -0.0000  -15.1250    0.0000 O   0  0  0  0  0  0  0  0  0  0  0  0
   -0.7145  -15.5375    0.0000 H   0  0  0  0  0  0  0  0  0  0  0  0
    0.7145  -15.5375    0.0000 H   0  0  0  0  0  0  0  0  0  0  0  0
    3.1968  -15.1250    0.0000 O   0  0  0  0  0  0  0  0  0  0  0  0
    2.4823  -15.5375    0.0000 H   0  0  0  0  0  0  0  0  0  0  0  0
    3.9113  -15.5375    0.0000 H   0  0  0  0  0  0  0  0  0  0  0  0
    6.3936  -15.1250    0.0000 O   0  0  0  0  0  0  0  0  0  0  0  0
    5.6791  -15.5375    0.0000 H   0  0  0  0  0  0  0  0  0  0  0  0
    7.1081  -15.5375    0.0000 H   0  0  0  0  0  0  0  0  0  0  0  0
    9.5904  -15.1250    0.0000 O   0  0  0  0  0  0  0  0  0  0  0  0
    8.8759  -15.5375    0.0000 H   0  0  0  0  0  0  0  0  0  0  0  0
   10.3049  -15.5375    0.0000 H   0  0  0  0  0  0  0  0  0  0  0  0
   12.7872  -15.1250    0.0000 O   0  0  0  0  0  0  0  0  0  0  0  0
   12.0727  -15.5375    0.0000 H   0  0  0  0  0  0  0  0  0  0  0  0
   13.5017  -15.5375    0.0000 H   0  0  0  0  0  0  0  0  0  0  0  0
   15.9840  -15.6750    0.0000 O   0  0  0  0  0  0  0  0  0  0  0  0
   15.2695  -15.2625    0.0000 H   0  0  0  0  0  0  0  0  0  0  0  0
   16.6985  -15.2625    0.0000 H   0  0  0  0  0  0  0  0  0  0  0  0
   19.1808  -15.6750    0.0000 O   0  0  0  0  0  0  0  0  0  0  0  0
   18.4663  -15.2625    0.0000 H   0  0  0  0  0  0  0  0  0  0  0  0
   19.8953  -15.2625    0.0000 H   0  0  0  0  0  0  0  0  0  0  0  0
   22.3776  -15.1250    0.0000 O   0  0  0  0  0  0  0  0  0  0  0  0
   21.6631  -15.5375    0.0000 H   0  0  0  0  0  0  0  0  0  0  0  0
   23.0921  -15.5375    0.0000 H   0  0  0  0  0  0  0  0  0  0  0  0
   25.5744  -15.1250    0.0000 O   0  0  0  0  0  0  0  0  0  0  0  0
   24.8599  -15.5375    0.0000 H   0  0  0  0  0  0  0  0  0  0  0  0
   26.2889  -15.5375    0.0000 H   0  0  0  0  0  0  0  0  0  0  0  0
   28.7712  -15.6750    0.0000 O   0  0  0  0  0  0  0  0  0  0  0  0
   28.0567  -15.2625    0.0000 H   0  0  0  0  0  0  0  0  0  0  0  0
   29.4857  -15.2625    0.0000 H   0  0  0  0  0  0  0  0  0  0  0  0
   31.9680  -15.1250    0.0000 O   0  0  0  0  0  0  0  0  0  0  0  0
   31.2535  -15.5375    0.0000 H   0  0  0  0  0  0  0  0  0  0  0  0
   32.6825  -15.5375    0.0000 H   0  0  0  0  0  0  0  0  0  0  0  0
   35.1648  -15.6750    0.0000 O   0  0  0  0  0  0  0  0  0  0  0  0
   34.4503  -15.2625    0.0000 H   0  0  0  0  0  0  0  0  0  0  0  0
   35.8793  -15.2625    0.0000 H   0  0  0  0  0  0  0  0  0  0  0  0
   38.3616  -15.6750    0.0000 O   0  0  0  0  0  0  0  0  0  0  0  0
   37.6471  -15.2625    0.0000 H   0  0  0  0  0  0  0  0  0  0  0  0
   39.0761  -15.2625    0.0000 H   0  0  0  0  0  0  0  0  0  0  0  0
   -0.0000  -17.3250    0.0000 O   0  0  0  0  0  0  0  0  0  0  0  0
   -0.7145  -17.7375    0.0000 H   0  0  0  0  0  0  0  0  0  0  0  0
    0.7145  -17.7375    0.0000 H   0  0  0  0  0  0  0  0  0  0  0  0
    3.1968  -17.3250    0.0000 O   0  0  0  0  0  0  0  0  0  0  0  0
    2.4823  -17.7375    0.0000 H   0  0  0  0  0  0  0  0  0  0  0  0
    3.9113  -17.7375    0.0000 H   0  0  0  0  0  0  0  0  0  0  0  0
    6.3936  -17.3250    0.0000 O   0  0  0  0  0  0  0  0  0  0  0  0
    5.6791  -17.7375    0.0000 H   0  0  0  0  0  0  0  0  0  0  0  0
    7.1081  -17.7375    0.0000 H   0  0  0  0  0  0  0  0  0  0  0  0
    9.5904  -17.8750    0.0000 O   0  0  0  0  0  0  0  0  0  0  0  0
    8.8759  -17.4625    0.0000 H   0  0  0  0  0  0  0  0  0  0  0  0
   10.3049  -17.4625    0.0000 H   0  0  0  0  0  0  0  0  0  0  0  0
   12.7872  -17.3250    0.0000 O   0  0  0  0  0  0  0  0  0  0  0  0
   12.0727  -17.7375    0.0000 H   0  0  0  0  0  0  0  0  0  0  0  0
   13.5017  -17.7375    0.0000 H   0  0  0  0  0  0  0  0  0  0  0  0
   15.9840  -17.3250    0.0000 O   0  0  0  0  0  0  0  0  0  0  0  0
   15.2695  -17.7375    0.0000 H   0  0  0  0  0  0  0  0  0  0  0  0
   16.6985  -17.7375    0.0000 H   0  0  0  0  0  0  0  0  0  0  0  0
   19.1808  -17.8750    0.0000 O   0  0  0  0  0  0  0  0  0  0  0  0
   18.4663  -17.4625    0.0000 H   0  0  0  0  0  0  0  0  0  0  0  0
   19.8953  -17.4625    0.0000 H   0  0  0  0  0  0  0  0  0  0  0  0
   22.3776  -17.3250    0.0000 O   0  0  0  0  0  0  0  0  0  0  0  0
   21.6631  -17.7375    0.0000 H   0  0  0  0  0  0  0  0  0  0  0  0
   23.0921  -17.7375    0.0000 H   0  0  0  0  0  0  0  0  0  0  0  0
   25.5744  -17.3250    0.0000 O   0  0  0  0  0  0  0  0  0  0  0  0
   24.8599  -17.7375    0.0000 H   0  0  0  0  0  0  0  0  0  0  0  0
   26.2889  -17.7375    0.0000 H   0  0  0  0  0  0  0  0  0  0  0  0
   28.7712  -17.8750    0.0000 O   0  0  0  0  0  0  0  0  0  0  0  0
   28.0567  -17.4625    0.0000 H   0  0  0  0  0  0  0  0  0  0  0  0
   29.4857  -17.4625    0.0000 H   0  0  0  0  0  0  0  0  0  0  0  0
   31.9680  -17.3250    0.0000 O   0  0  0  0  0  0  0  0  0  0  0  0
   31.2535  -17.7375    0.0000 H   0  0  0  0  0  0  0  0  0  0  0  0
   32.6825  -17.7375    0.0000 H   0  0  0  0  0  0  0  0  0  0  0  0
   35.1648  -17.3250    0.0000 O   0  0  0  0  0  0  0  0  0  0  0  0
   34.4503  -17.7375    0.0000 H   0  0  0  0  0  0  0  0  0  0  0  0
   35.8793  -17.7375    0.0000 H   0  0  0  0  0  0  0  0  0  0  0  0
   38.3616  -17.8750    0.0000 O   0  0  0  0  0  0  0  0  0  0  0  0
   37.6471  -17.4625    0.0000 H   0  0  0  0  0  0  0  0  0  0  0  0
   39.0761  -17.4625    0.0000 H   0  0  0  0  0  0  0  0  0  0  0  0
    0.0000  -19.5250    0.0000 O   0  0  0  0  0  0  0  0  0  0  0  0
   -0.7145  -19.9375    0.0000 H   0  0  0  0  0  0  0  0  0  0  0  0
    0.7145  -19.9375    0.0000 H   0  0  0  0  0  0  0  0  0  0  0  0
    3.1968  -19.5250    0.0000 O   0  0  0  0  0  0  0  0  0  0  0  0
    2.4823  -19.9375    0.0000 H   0  0  0  0  0  0  0  0  0  0  0  0
    3.9113  -19.9375    0.0000 H   0  0  0  0  0  0  0  0  0  0  0  0
    6.3936  -19.5250    0.0000 O   0  0  0  0  0  0  0  0  0  0  0  0
    5.6791  -19.9375    0.0000 H   0  0  0  0  0  0  0  0  0  0  0  0
    7.1081  -19.9375    0.0000 H   0  0  0  0  0  0  0  0  0  0  0  0
    9.5904  -20.0750    0.0000 O   0  0  0  0  0  0  0  0  0  0  0  0
    8.8759  -19.6625    0.0000 H   0  0  0  0  0  0  0  0  0  0  0  0
   10.3049  -19.6625    0.0000 H   0  0  0  0  0  0  0  0  0  0  0  0
   12.7872  -19.5250    0.0000 O   0  0  0  0  0  0  0  0  0  0  0  0
   12.0727  -19.9375    0.0000 H   0  0  0  0  0  0  0  0  0  0  0  0
   13.5017  -19.9375    0.0000 H   0  0  0  0  0  0  0  0  0  0  0  0
   15.9840  -20.0750    0.0000 O   0  0  0  0  0  0  0  0  0  0  0  0
   15.2695  -19.6625    0.0000 H   0  0  0  0  0  0  0  0  0  0  0  0
   16.6985  -19.6625    0.0000 H   0  0  0  0  0  0  0  0  0  0  0  0
   19.1808  -20.0750    0.0000 O   0  0  0  0  0  0  0  0  0  0  0  0
   18.4663  -19.6625    0.0000 H   0  0  0  0  0  0  0  0  0  0  0  0
   19.8953  -19.6625    0.0000 H   0  0  0  0  0  0  0  0  0  0  0  0
   22.3776  -19.5250    0.0000 O   0  0  0  0  0  0  0  0  0  0  0  0
   21.6631  -19.9375    0.0000 H   0  0  0  0  0  0  0  0  0  0  0  0
   23.0921  -19.9375    0.0000 H   0  0  0  0  0  0  0  0  0  0  0  0
   25.5744  -19.5250    0.0000 O   0  0  0  0  0  0  0  0  0  0  0  0
   24.8599  -19.9375    0.0000 H   0  0  0  0  0  0  0  0  0  0  0  0
   26.2889  -19.9375    0.0000 H   0  0  0  0  0  0  0  0  0  0  0  0
   28.7712  -20.0750    0.0000 O   0  0  0  0  0  0  0  0  0  0  0  0
   28.0567  -19.6625    0.0000 H   0  0  0  0  0  0  0  0  0  0  0  0
   29.4857  -19.6625    0.0000 H   0  0  0  0  0  0  0  0  0  0  0  0
   31.9680  -19.5250    0.0000 O   0  0  0  0  0  0  0  0  0  0  0  0
   31.2535  -19.9375    0.0000 H   0  0  0  0  0  0  0  0  0  0  0  0
   32.6825  -19.9375    0.0000 H   0  0  0  0  0  0  0  0  0  0  0  0
   35.1648  -20.0750    0.0000 O   0  0  0  0  0  0  0  0  0  0  0  0
   34.4503  -19.6625    0.0000 H   0  0  0  0  0  0  0  0  0  0  0  0
   35.8793  -19.6625    0.0000 H   0  0  0  0  0  0  0  0  0  0  0  0
   38.3616  -19.5250    0.0000 O   0  0  0  0  0  0  0  0  0  0  0  0
   37.6471  -19.9375    0.0000 H   0  0  0  0  0  0  0  0  0  0  0  0
   39.0761  -19.9375    0.0000 H   0  0  0  0  0  0  0  0  0  0  0  0
    0.0000  -22.2750    0.0000 O   0  0  0  0  0  0  0  0  0  0  0  0
   -0.7145  -21.8625    0.0000 H   0  0  0  0  0  0  0  0  0  0  0  0
    0.7145  -21.8625    0.0000 H   0  0  0  0  0  0  0  0  0  0  0  0
    3.1968  -22.2750    0.0000 O   0  0  0  0  0  0  0  0  0  0  0  0
    2.4823  -21.8625    0.0000 H   0  0  0  0  0  0  0  0  0  0  0  0
    3.9113  -21.8625    0.0000 H   0  0  0  0  0  0  0  0  0  0  0  0
    6.3936  -21.7250    0.0000 O   0  0  0  0  0  0  0  0  0  0  0  0
    5.6791  -22.1375    0.0000 H   0  0  0  0  0  0  0  0  0  0  0  0
    7.1081  -22.1375    0.0000 H   0  0  0  0  0  0  0  0  0  0  0  0
    9.5904  -21.7250    0.0000 O   0  0  0  0  0  0  0  0  0  0  0  0
    8.8759  -22.1375    0.0000 H   0  0  0  0  0  0  0  0  0  0  0  0
   10.3049  -22.1375    0.0000 H   0  0  0  0  0  0  0  0  0  0  0  0
   12.7872  -22.2750    0.0000 O   0  0  0  0  0  0  0  0  0  0  0  0
   12.0727  -21.8625    0.0000 H   0  0  0  0  0  0  0  0  0  0  0  0
   13.5017  -21.8625    0.0000 H   0  0  0  0  0  0  0  0  0  0  0  0
   15.9840  -22.2750    0.0000 O   0  0  0  0  0  0  0  0  0  0  0  0
   15.2695  -21.8625    0.0000 H   0  0  0  0  0  0  0  0  0  0  0  0
   16.6985  -21.8625    0.0000 H   0  0  0  0  0  0  0  0  0  0  0  0
   19.1808  -22.2750    0.0000 O   0  0  0  0  0  0  0  0  0  0  0  0
   18.4663  -21.8625    0.0000 H   0  0  0  0  0  0  0  0  0  0  0  0
   19.8953  -21.8625    0.0000 H   0  0  0  0  0  0  0  0  0  0  0  0
   22.3776  -21.7250    0.0000 O   0  0  0  0  0  0  0  0  0  0  0  0
   21.6631  -22.1375    0.0000 H   0  0  0  0  0  0  0  0  0  0  0  0
   23.0921  -22.1375    0.0000 H   0  0  0  0  0  0  0  0  0  0  0  0
   25.5744  -22.2750    0.0000 O   0  0  0  0  0  0  0  0  0  0  0  0
   24.8599  -21.8625    0.0000 H   0  0  0  0  0  0  0  0  0  0  0  0
   26.2889  -21.8625    0.0000 H   0  0  0  0  0  0  0  0  0  0  0  0
   28.7712  -21.7250    0.0000 O   0  0  0  0  0  0  0  0  0  0  0  0
   28.0567  -22.1375    0.0000 H   0  0  0  0  0  0  0  0  0  0  0  0
   29.4857  -22.1375    0.0000 H   0  0  0  0  0  0  0  0  0  0  0  0
   31.9680  -22.2750    0.0000 O   0  0  0  0  0  0  0  0  0  0  0  0
   31.2535  -21.8625    0.0000 H   0  0  0  0  0  0  0  0  0  0  0  0
   32.6825  -21.8625    0.0000 H   0  0  0  0  0  0  0  0  0  0  0  0
   35.1648  -22.2750    0.0000 O   0  0  0  0  0  0  0  0  0  0  0  0
   34.4503  -21.8625    0.0000 H   0  0  0  0  0  0  0  0  0  0  0  0
   35.8793  -21.8625    0.0000 H   0  0  0  0  0  0  0  0  0  0  0  0
   38.3616  -21.7250    0.0000 O   0  0  0  0  0  0  0  0  0  0  0  0
   37.6471  -22.1375    0.0000 H   0  0  0  0  0  0  0  0  0  0  0  0
   39.0761  -22.1375    0.0000 H   0  0  0  0  0  0  0  0  0  0  0  0
    0.0000  -24.4750    0.0000 O   0  0  0  0  0  0  0  0  0  0  0  0
   -0.7145  -24.0625    0.0000 H   0  0  0  0  0  0  0  0  0  0  0  0
    0.7145  -24.0625    0.0000 H   0  0  0  0  0  0  0  0  0  0  0  0
    3.1968  -23.9250    0.0000 O   0  0  0  0  0  0  0  0  0  0  0  0
    2.4823  -24.3375    0.0000 H   0  0  0  0  0  0  0  0  0  0  0  0
    3.9113  -24.3375    0.0000 H   0  0  0  0  0  0  0  0  0  0  0  0
    6.3936  -24.4750    0.0000 O   0  0  0  0  0  0  0  0  0  0  0  0
    5.6791  -24.0625    0.0000 H   0  0  0  0  0  0  0  0  0  0  0  0
    7.1081  -24.0625    0.0000 H   0  0  0  0  0  0  0  0  0  0  0  0
    9.5904  -24.4750    0.0000 O   0  0  0  0  0  0  0  0  0  0  0  0
    8.8759  -24.0625    0.0000 H   0  0  0  0  0  0  0  0  0  0  0  0
   10.3049  -24.0625    0.0000 H   0  0  0  0  0  0  0  0  0  0  0  0
   12.7872  -24.4750    0.0000 O   0  0  0  0  0  0  0  0  0  0  0  0
   12.0727  -24.0625    0.0000 H   0  0  0  0  0  0  0  0  0  0  0  0
   13.5017  -24.0625    0.0000 H   0  0  0  0  0  0  0  0  0  0  0  0
   15.9840  -23.9250    0.0000 O   0  0  0  0  0  0  0  0  0  0  0  0
   15.2695  -24.3375    0.0000 H   0  0  0  0  0  0  0  0  0  0  0  0
   16.6985  -24.3375    0.0000 H   0  0  0  0  0  0  0  0  0  0  0  0
   19.1808  -23.9250    0.0000 O   0  0  0  0  0  0  0  0  0  0  0  0
   18.4663  -24.3375    0.0000 H   0  0  0  0  0  0  0  0  0  0  0  0
   19.8953  -24.3375    0.0000 H   0  0  0  0  0  0  0  0  0  0  0  0
   22.3776  -23.9250    0.0000 O   0  0  0  0  0  0  0  0  0  0  0  0
   21.6631  -24.3375    0.0000 H   0  0  0  0  0  0  0  0  0  0  0  0
   23.0921  -24.3375    0.0000 H   0  0  0  0  0  0  0  0  0  0  0  0
   25.5744  -24.4750    0.0000 O   0  0  0  0  0  0  0  0  0  0  0  0
   24.8599  -24.0625    0.0000 H   0  0  0  0  0  0  0  0  0  0  0  0
   26.2889  -24.0625    0.0000 H   0  0  0  0  0  0  0  0  0  0  0  0
   28.7712  -23.9250    0.0000 O   0  0  0  0  0  0  0  0  0  0  0  0
   28.0567  -24.3375    0.0000 H   0  0  0  0  0  0  0  0  0  0  0  0
   29.4857  -24.3375    0.0000 H   0  0  0  0  0  0  0  0  0  0  0  0
  1  3  1  0  0  0  0
  2  1  1  0  0  0  0
  4  6  1  0  0  0  0
  4  5  1  0  0  0  0
  7  8  1  0  0  0  0
  9  7  1  0  0  0  0
 10 11  1  0  0  0  0
 10 12  1  0  0  0  0
 13 15  1  0  0  0  0
 13 14  1  0  0  0  0
 17 16  1  0  0  0  0
 18 16  1  0  0  0  0
 19 21  1  0  0  0  0
 20 19  1  0  0  0  0
 22 24  1  0  0  0  0
 23 22  1  0  0  0  0
 25 27  1  0  0  0  0
 26 25  1  0  0  0  0
 28 30  1  0  0  0  0
 29 28  1  0  0  0  0
 31 32  1  0  0  0  0
 33 31  1  0  0  0  0
 34 35  1  0  0  0  0
 36 34  1  0  0  0  0
 37 39  1  0  0  0  0
 38 37  1  0  0  0  0
 40 42  1  0  0  0  0
 41 40  1  0  0  0  0
 43 44  1  0  0  0  0
 45 43  1  0  0  0  0
 46 48  1  0  0  0  0
 47 46  1  0  0  0  0
 49 51  1  0  0  0  0
 49 50  1  0  0  0  0
 53 52  1  0  0  0  0
 54 52  1  0  0  0  0
 55 56  1  0  0  0  0
 57 55  1  0  0  0  0
 58 60  1  0  0  0  0
 59 58  1  0  0  0  0
 61 63  1  0  0  0  0
 62 61  1  0  0  0  0
 64 66  1  0  0  0  0
 64 65  1  0  0  0  0
 68 67  1  0  0  0  0
 69 67  1  0  0  0  0
 70 71  1  0  0  0  0
 70 72  1  0  0  0  0
 73 75  1  0  0  0  0
 74 73  1  0  0  0  0
 76 78  1  0  0  0  0
 77 76  1  0  0  0  0
 79 80  1  0  0  0  0
 81 79  1  0  0  0  0
 82 83  1  0  0  0  0
 82 84  1  0  0  0  0
 86 85  1  0  0  0  0
 87 85  1  0  0  0  0
 88 89  1  0  0  0  0
 90 88  1  0  0  0  0
 91 93  1  0  0  0  0
 92 91  1  0  0  0  0
 94 96  1  0  0  0  0
 94 95  1  0  0  0  0
 97 98  1  0  0  0  0
 99 97  1  0  0  0  0
101100  1  0  0  0  0
102100  1  0  0  0  0
103105  1  0  0  0  0
104103  1  0  0  0  0
106107  1  0  0  0  0
108106  1  0  0  0  0
109110  1  0  0  0  0
111109  1  0  0  0  0
112114  1  0  0  0  0
113112  1  0  0  0  0
116115  1  0  0  0  0
117115  1  0  0  0  0
118120  1  0  0  0  0
119118  1  0  0  0  0
121122  1  0  0  0  0
121123  1  0  0  0  0
124126  1  0  0  0  0
125124  1  0  0  0  0
127129  1  0  0  0  0
127128  1  0  0  0  0
130131  1  0  0  0  0
130132  1  0  0  0  0
133134  1  0  0  0  0
133135  1  0  0  0  0
136138  1  0  0  0  0
137136  1  0  0  0  0
139140  1  0  0  0  0
141139  1  0  0  0  0
142144  1  0  0  0  0
142143  1  0  0  0  0
146145  1  0  0  0  0
147145  1  0  0  0  0
148150  1  0  0  0  0
148149  1  0  0  0  0
151153  1  0  0  0  0
151152  1  0  0  0  0
154156  1  0  0  0  0
155154  1  0  0  0  0
157159  1  0  0  0  0
157158  1  0  0  0  0
160162  1  0  0  0  0
161160  1  0  0  0  0
163165  1  0  0  0  0
163164  1  0  0  0  0
166168  1  0  0  0  0
167166  1  0  0  0  0
169170  1  0  0  0  0
171169  1  0  0  0  0
173172  1  0  0  0  0
174172  1  0  0  0  0
175177  1  0  0  0  0
176175  1  0  0  0  0
178180  1  0  0  0  0
179178  1  0  0  0  0
181182  1  0  0  0  0
183181  1  0  0  0  0
184185  1  0  0  0  0
186184  1  0  0  0  0
187188  1  0  0  0  0
189187  1  0  0  0  0
190192  1  0  0  0  0
190191  1  0  0  0  0
193195  1  0  0  0  0
193194  1  0  0  0  0
196198  1  0  0  0  0
197196  1  0  0  0  0
200199  1  0  0  0  0
201199  1  0  0  0  0
202204  1  0  0  0  0
203202  1  0  0  0  0
205206  1  0  0  0  0
207205  1  0  0  0  0
208210  1  0  0  0  0
209208  1  0  0  0  0
212211  1  0  0  0  0
213211  1  0  0  0  0
214215  1  0  0  0  0
216214  1  0  0  0  0
218217  1  0  0  0  0
219217  1  0  0  0  0
220222  1  0  0  0  0
221220  1  0  0  0  0
223224  1  0  0  0  0
223225  1  0  0  0  0
226228  1  0  0  0  0
227226  1  0  0  0  0
229230  1  0  0  0  0
231229  1  0  0  0  0
232234  1  0  0  0  0
233232  1  0  0  0  0
235236  1  0  0  0  0
235237  1  0  0  0  0
238240  1  0  0  0  0
239238  1  0  0  0  0
241243  1  0  0  0  0
242241  1  0  0  0  0
244245  1  0  0  0  0
246244  1  0  0  0  0
247248  1  0  0  0  0
247249  1  0  0  0  0
250252  1  0  0  0  0
251250  1  0  0  0  0
253254  1  0  0  0  0
253255  1  0  0  0  0
256257  1  0  0  0  0
258256  1  0  0  0  0
259260  1  0  0  0  0
261259  1  0  0  0  0
262264  1  0  0  0  0
263262  1  0  0  0  0
265266  1  0  0  0  0
267265  1  0  0  0  0
268269  1  0  0  0  0
268270  1  0  0  0  0
271273  1  0  0  0  0
272271  1  0  0  0  0
274275  1  0  0  0  0
274276  1  0  0  0  0
277278  1  0  0  0  0
279277  1  0  0  0  0
281280  1  0  0  0  0
282280  1  0  0  0  0
283284  1  0  0  0  0
285283  1  0  0  0  0
287286  1  0  0  0  0
288286  1  0  0  0  0
289291  1  0  0  0  0
290289  1  0  0  0  0
292294  1  0  0  0  0
292293  1  0  0  0  0
295296  1  0  0  0  0
297295  1  0  0  0  0
298299  1  0  0  0  0
300298  1  0  0  0  0
301303  1  0  0  0  0
302301  1  0  0  0  0
304305  1  0  0  0  0
306304  1  0  0  0  0
307309  1  0  0  0  0
308307  1  0  0  0  0
310312  1  0  0  0  0
311310  1  0  0  0  0
313314  1  0  0  0  0
315313  1  0  0  0  0
316317  1  0  0  0  0
318316  1  0  0  0  0
320319  1  0  0  0  0
321319  1  0  0  0  0
322324  1  0  0  0  0
323322  1  0  0  0  0
325326  1  0  0  0  0
327325  1  0  0  0  0
328329  1  0  0  0  0
330328  1  0  0  0  0
331333  1  0  0  0  0
331332  1  0  0  0  0
334335  1  0  0  0  0
334336  1  0  0  0  0
337338  1  0  0  0  0
339337  1  0  0  0  0
340342  1  0  0  0  0
341340  1  0  0  0  0
343344  1  0  0  0  0
345343  1  0  0  0  0
347346  1  0  0  0  0
348346  1  0  0  0  0
349351  1  0  0  0  0
350349  1  0  0  0  0
352353  1  0  0  0  0
352354  1  0  0  0  0
355356  1  0  0  0  0
357355  1  0  0  0  0
358359  1  0  0  0  0
360358  1  0  0  0  0
361363  1  0  0  0  0
362361  1  0  0  0  0
364365  1  0  0  0  0
366364  1  0  0  0  0
367369  1  0  0  0  0
367368  1  0  0  0  0
370372  1  0  0  0  0
371370  1  0  0  0  0
373374  1  0  0  0  0
375373  1  0  0  0  0
376377  1  0  0  0  0
378376  1  0  0  0  0
379381  1  0  0  0  0
379380  1  0  0  0  0
383382  1  0  0  0  0
384382  1  0  0  0  0
385387  1  0  0  0  0
385386  1  0  0  0  0
388389  1  0  0  0  0
388390  1  0  0  0  0
391393  1  0  0  0  0
392391  1  0  0  0  0
394396  1  0  0  0  0
394395  1  0  0  0  0
397398  1  0  0  0  0
399397  1  0  0  0  0
400401  1  0  0  0  0
400402  1  0  0  0  0
403405  1  0  0  0  0
404403  1  0  0  0  0
406408  1  0  0  0  0
407406  1  0  0  0  0
409411  1  0  0  0  0
410409  1  0  0  0  0
412413  1  0  0  0  0
414412  1  0  0  0  0
415417  1  0  0  0  0
416415  1  0  0  0  0
418419  1  0  0  0  0
418420  1  0  0  0  0
421423  1  0  0  0  0
422421  1  0  0  0  0
424426  1  0  0  0  0
425424  1  0  0  0  0
428427  1  0  0  0  0
429427  1  0  0  0  0
430432  1  0  0  0  0
430431  1  0  0  0  0
433434  1  0  0  0  0
435433  1  0  0  0  0
436438  1  0  0  0  0
437436  1  0  0  0  0
439441  1  0  0  0  0
440439  1  0  0  0  0
442444  1  0  0  0  0
443442  1  0  0  0  0
445446  1  0  0  0  0
447445  1  0  0  0  0
449448  1  0  0  0  0
450448  1  0  0  0  0
451452  1  0  0  0  0
453451  1  0  0  0  0
454456  1  0  0  0  0
455454  1  0  0  0  0
457458  1  0  0  0  0
459457  1  0  0  0  0
M  END
