@<TRIPOS>MOLECULE
lig
 459 306 0 0 0
SMALL
GASTEIGER

@<TRIPOS>ATOM
      1  OH2        9.4250    0.0600  -10.5620 O.3   301  TIP301     -0.4105
      2  H1         9.3560    0.9560  -10.9170 H     301  TIP301      0.2052
      3  H2        10.1010    0.1420   -9.8770 H     301  TIP301      0.2052
      4  OH2        6.5640   -1.0130   -2.8320 O.3   302  TIP302     -0.4105
      5  H1         6.5180   -1.5790   -2.0500 H     302  TIP302      0.2052
      6  H2         7.4160   -0.5400   -2.7180 H     302  TIP302      0.2052
      7  OH2       22.4960    6.4350   -8.8150 O.3   304  TIP304     -0.4105
      8  H1        21.8740    6.7700   -8.1610 H     304  TIP304      0.2052
      9  H2        22.4830    7.1170   -9.4980 H     304  TIP304      0.2052
     10  OH2       11.8440    6.9520   10.0210 O.3   307  TIP307     -0.4105
     11  H1        11.6040    6.0400   10.2530 H     307  TIP307      0.2052
     12  H2        11.2740    7.5070   10.5810 H     307  TIP307      0.2052
     13  OH2       -1.2120  -10.0770  -10.9420 O.3   309  TIP309     -0.4105
     14  H1        -0.9810   -9.6460  -10.0850 H     309  TIP309      0.2052
     15  H2        -0.8890  -10.9890  -10.8210 H     309  TIP309      0.2052
     16  OH2        8.8800   -6.4270   16.4340 O.3   311  TIP311     -0.4105
     17  H1         9.2890   -6.4210   15.5530 H     311  TIP311      0.2052
     18  H2         8.0070   -6.7690   16.1220 H     311  TIP311      0.2052
     19  OH2        7.6440  -16.8680   14.5710 O.3   312  TIP312     -0.4105
     20  H1         7.9960  -17.1880   13.7270 H     312  TIP312      0.2052
     21  H2         8.1240  -16.0140   14.5720 H     312  TIP312      0.2052
     22  OH2       -5.6750   -8.5080  -10.6520 O.3   314  TIP314     -0.4105
     23  H1        -6.2450   -7.9540  -11.2200 H     314  TIP314      0.2052
     24  H2        -5.7160   -8.1030   -9.7690 H     314  TIP314      0.2052
     25  OH2      -24.9410    4.4630   -4.7890 O.3   315  TIP315     -0.4105
     26  H1       -25.1150    5.1470   -5.4720 H     315  TIP315      0.2052
     27  H2       -25.4370    4.8470   -4.0600 H     315  TIP315      0.2052
     28  OH2        5.2630   15.3590    8.5420 O.3   318  TIP318     -0.4105
     29  H1         4.5730   15.9980    8.3300 H     318  TIP318      0.2052
     30  H2         5.7980   15.8610    9.1780 H     318  TIP318      0.2052
     31  OH2        5.3790   12.4160   -1.4390 O.3   319  TIP319     -0.4105
     32  H1         5.5590   12.2620   -0.4950 H     319  TIP319      0.2052
     33  H2         6.2950   12.6170   -1.6700 H     319  TIP319      0.2052
     34  OH2        6.9300    9.6150   -3.3640 O.3   320  TIP320     -0.4105
     35  H1         6.3880    9.4110   -2.5820 H     320  TIP320      0.2052
     36  H2         6.5060   10.3950   -3.7540 H     320  TIP320      0.2052
     37  OH2       12.5200   -0.5270    4.8580 O.3   321  TIP321     -0.4105
     38  H1        13.0600    0.2830    4.7900 H     321  TIP321      0.2052
     39  H2        12.3090   -0.4720    5.8200 H     321  TIP321      0.2052
     40  OH2        3.3400   -4.5450  -13.7520 O.3   322  TIP322     -0.4105
     41  H1         2.7730   -4.6550  -14.5260 H     322  TIP322      0.2052
     42  H2         2.9380   -3.7510  -13.3510 H     322  TIP322      0.2052
     43  OH2      -25.5730    6.4000   -6.3770 O.3   323  TIP323     -0.4105
     44  H1       -24.7850    6.9680   -6.1750 H     323  TIP323      0.2052
     45  H2       -25.6370    6.4470   -7.3450 H     323  TIP323      0.2052
     46  OH2        0.1330    8.0740    1.4370 O.3   324  TIP324     -0.4105
     47  H1         1.0800    8.1810    1.2990 H     324  TIP324      0.2052
     48  H2        -0.0370    8.6030    2.2330 H     324  TIP324      0.2052
     49  OH2       14.5170  -12.4340   -9.1270 O.3   326  TIP326     -0.4105
     50  H1        14.0140  -12.4890   -8.2950 H     326  TIP326      0.2052
     51  H2        15.2640  -13.0250   -8.9400 H     326  TIP326      0.2052
     52  OH2        5.2390  -18.8270    5.3140 O.3   327  TIP327     -0.4105
     53  H1         5.1560  -19.2570    4.4400 H     327  TIP327      0.2052
     54  H2         5.7840  -18.0550    5.1100 H     327  TIP327      0.2052
     55  OH2      -15.2750   -3.7880    9.6860 O.3   328  TIP328     -0.4105
     56  H1       -15.1130   -3.1120   10.3530 H     328  TIP328      0.2052
     57  H2       -15.1500   -3.2640    8.8810 H     328  TIP328      0.2052
     58  OH2       12.9890    9.0250  -11.7910 O.3   329  TIP329     -0.4105
     59  H1        12.9490    9.9650  -11.9900 H     329  TIP329      0.2052
     60  H2        13.9460    8.8750  -11.7590 H     329  TIP329      0.2052
     61  OH2        1.4330    7.2690   16.8240 O.3   330  TIP330     -0.4105
     62  H1         1.2480    7.2680   15.8760 H     330  TIP330      0.2052
     63  H2         2.3600    7.5340   16.8580 H     330  TIP330      0.2052
     64  OH2        2.1150    3.4970   14.7120 O.3   331  TIP331     -0.4105
     65  H1         2.8280    3.7670   15.3060 H     331  TIP331      0.2052
     66  H2         1.4360    4.1740   14.8510 H     331  TIP331      0.2052
     67  OH2       -7.1870   -7.1010  -12.5780 O.3   332  TIP332     -0.4105
     68  H1        -6.7850   -6.3520  -13.0600 H     332  TIP332      0.2052
     69  H2        -8.0680   -7.1340  -12.9940 H     332  TIP332      0.2052
     70  OH2        2.1400   -5.7550   14.0230 O.3   333  TIP333     -0.4105
     71  H1         1.4450   -5.3880   14.5790 H     333  TIP333      0.2052
     72  H2         2.6120   -6.3350   14.6290 H     333  TIP333      0.2052
     73  OH2      -13.6940    2.4370   12.1010 O.3   335  TIP335     -0.4105
     74  H1       -14.2410    1.6570   11.9350 H     335  TIP335      0.2052
     75  H2       -13.5510    2.3520   13.0590 H     335  TIP335      0.2052
     76  OH2      -12.6110  -11.6720   -4.8090 O.3   336  TIP336     -0.4105
     77  H1       -12.7880  -11.5310   -5.7560 H     336  TIP336      0.2052
     78  H2       -13.4030  -12.0980   -4.4650 H     336  TIP336      0.2052
     79  OH2      -24.1540    9.1880   -8.6160 O.3   337  TIP337     -0.4105
     80  H1       -23.6650    8.9050   -7.8290 H     337  TIP337      0.2052
     81  H2       -24.5550    8.3550   -8.8730 H     337  TIP337      0.2052
     82  OH2        3.9140   13.6990    6.2490 O.3   338  TIP338     -0.4105
     83  H1         3.1040   13.4010    6.6990 H     338  TIP338      0.2052
     84  H2         4.4250   14.0760    6.9770 H     338  TIP338      0.2052
     85  OH2       -0.7000   13.2790    0.7080 O.3   340  TIP340     -0.4105
     86  H1        -1.6610   13.2840    0.6850 H     340  TIP340      0.2052
     87  H2        -0.4980   13.7560   -0.1160 H     340  TIP340      0.2052
     88  OH2        2.6840   -6.6880  -10.4030 O.3   341  TIP341     -0.4105
     89  H1         3.3340   -6.8040   -9.7000 H     341  TIP341      0.2052
     90  H2         3.1480   -6.0380  -10.9490 H     341  TIP341      0.2052
     91  OH2       -5.4750    6.7110   11.4260 O.3   342  TIP342     -0.4105
     92  H1        -4.8080    6.6510   10.7340 H     342  TIP342      0.2052
     93  H2        -5.5800    7.6610   11.5370 H     342  TIP342      0.2052
     94  OH2       -3.9090    9.2910    9.6240 O.3   343  TIP343     -0.4105
     95  H1        -4.4800    9.5090   10.3840 H     343  TIP343      0.2052
     96  H2        -3.8810    8.3120    9.6510 H     343  TIP343      0.2052
     97  OH2       12.8280  -16.6070    5.4070 O.3   344  TIP344     -0.4105
     98  H1        12.1760  -16.6080    6.1310 H     344  TIP344      0.2052
     99  H2        12.4900  -15.8400    4.9030 H     344  TIP344      0.2052
    100  OH2       -0.1230   -4.0180  -13.0710 O.3   345  TIP345     -0.4105
    101  H1         0.3860   -3.2240  -13.2780 H     345  TIP345      0.2052
    102  H2        -1.0340   -3.7550  -13.3020 H     345  TIP345      0.2052
    103  OH2       -1.1970   -8.7010   10.9680 O.3   346  TIP346     -0.4105
    104  H1        -1.8670   -8.0710   10.6550 H     346  TIP346      0.2052
    105  H2        -1.0850   -8.4630   11.8920 H     346  TIP346      0.2052
    106  OH2       14.8220   13.5780    9.8290 O.3   347  TIP347     -0.4105
    107  H1        15.3160   13.1490   10.5560 H     347  TIP347      0.2052
    108  H2        14.5180   12.7780    9.3600 H     347  TIP347      0.2052
    109  OH2       15.3950   16.3970   -6.4990 O.3   348  TIP348     -0.4105
    110  H1        14.8980   15.6090   -6.2680 H     348  TIP348      0.2052
    111  H2        16.1000   16.0430   -7.0620 H     348  TIP348      0.2052
    112  OH2      -24.5800    6.0940   -8.4130 O.3   349  TIP349     -0.4105
    113  H1       -23.8260    5.8690   -8.9720 H     349  TIP349      0.2052
    114  H2       -24.1450    6.0790   -7.5330 H     349  TIP349      0.2052
    115  OH2      -12.4260  -15.5030   -6.7620 O.3   350  TIP350     -0.4105
    116  H1       -12.2630  -14.5720   -6.9220 H     350  TIP350      0.2052
    117  H2       -13.2410  -15.5910   -7.3090 H     350  TIP350      0.2052
    118  OH2      -14.9610    1.4720   -8.8760 O.3   351  TIP351     -0.4105
    119  H1       -15.8090    1.4200   -9.3390 H     351  TIP351      0.2052
    120  H2       -15.2030    1.1870   -7.9820 H     351  TIP351      0.2052
    121  OH2       -2.2340  -16.7820    5.5510 O.3   352  TIP352     -0.4105
    122  H1        -2.4320  -15.8470    5.7480 H     352  TIP352      0.2052
    123  H2        -2.1590  -17.1700    6.4310 H     352  TIP352      0.2052
    124  OH2      -11.3990    7.7210   11.8740 O.3   354  TIP354     -0.4105
    125  H1       -10.7350    7.1320   11.5040 H     354  TIP354      0.2052
    126  H2       -10.9070    8.2010   12.5560 H     354  TIP354      0.2052
    127  OH2        4.4920   17.0410   10.9250 O.3   355  TIP355     -0.4105
    128  H1         4.3760   16.1020   11.1030 H     355  TIP355      0.2052
    129  H2         3.5290   17.2850   10.9770 H     355  TIP355      0.2052
    130  OH2       21.0890   -7.3400   -7.1710 O.3   356  TIP356     -0.4105
    131  H1        22.0320   -7.1300   -7.0680 H     356  TIP356      0.2052
    132  H2        21.0880   -8.2890   -6.9570 H     356  TIP356      0.2052
    133  OH2       17.2390   -7.8040    0.3720 O.3   358  TIP358     -0.4105
    134  H1        16.4720   -8.3850    0.5000 H     358  TIP358      0.2052
    135  H2        16.8540   -6.9940    0.7230 H     358  TIP358      0.2052
    136  OH2      -18.4870    2.5090    3.5810 O.3   359  TIP359     -0.4105
    137  H1       -18.2020    1.8200    2.9830 H     359  TIP359      0.2052
    138  H2       -18.0030    2.3090    4.3970 H     359  TIP359      0.2052
    139  OH2        9.4570   -7.3710   10.8590 O.3   360  TIP360     -0.4105
    140  H1         9.5470   -7.2440   11.8270 H     360  TIP360      0.2052
    141  H2         8.9280   -8.1980   10.8000 H     360  TIP360      0.2052
    142  OH2       -1.0270    9.9540    9.0890 O.3   361  TIP361     -0.4105
    143  H1        -0.3450    9.7720    9.7810 H     361  TIP361      0.2052
    144  H2        -1.8500    9.7150    9.5490 H     361  TIP361      0.2052
    145  OH2        6.7170    7.2720   -2.2860 O.3   362  TIP362     -0.4105
    146  H1         6.7650    6.3160   -2.5490 H     362  TIP362      0.2052
    147  H2         6.8920    7.7110   -3.1280 H     362  TIP362      0.2052
    148  OH2        1.1350    2.3240   12.6490 O.3   363  TIP363     -0.4105
    149  H1         1.6150    2.6080   13.4600 H     363  TIP363      0.2052
    150  H2         0.2200    2.4590   12.9260 H     363  TIP363      0.2052
    151  OH2       -9.8330  -12.4100  -14.2570 O.3   364  TIP364     -0.4105
    152  H1       -10.1520  -13.0220  -13.5820 H     364  TIP364      0.2052
    153  H2       -10.3710  -11.6180  -14.0830 H     364  TIP364      0.2052
    154  OH2        9.3130    0.4060   14.7070 O.3   366  TIP366     -0.4105
    155  H1         9.5300    0.8660   13.8870 H     366  TIP366      0.2052
    156  H2         9.9120    0.8710   15.3330 H     366  TIP366      0.2052
    157  OH2       21.5020    6.6400    1.4340 O.3   367  TIP367     -0.4105
    158  H1        20.8380    6.4200    2.1240 H     367  TIP367      0.2052
    159  H2        22.2800    6.2870    1.8750 H     367  TIP367      0.2052
    160  OH2       24.1960    5.5990   -0.7080 O.3   368  TIP368     -0.4105
    161  H1        24.0720    5.0620   -1.5060 H     368  TIP368      0.2052
    162  H2        24.3250    4.9320   -0.0250 H     368  TIP368      0.2052
    163  OH2       10.5530    3.0420  -11.0700 O.3   369  TIP369     -0.4105
    164  H1        10.1870    3.4520  -10.2640 H     369  TIP369      0.2052
    165  H2        11.4930    2.9680  -10.8700 H     369  TIP369      0.2052
    166  OH2       15.7780   14.5870    1.3340 O.3   371  TIP371     -0.4105
    167  H1        15.9270   13.7310    0.8820 H     371  TIP371      0.2052
    168  H2        15.2650   14.2960    2.1010 H     371  TIP371      0.2052
    169  OH2       19.3980   11.7760   -5.0070 O.3   372  TIP372     -0.4105
    170  H1        18.6000   11.3090   -4.7660 H     372  TIP372      0.2052
    171  H2        19.0780   12.4270   -5.6390 H     372  TIP372      0.2052
    172  OH2       19.6420   -5.4420   -5.5500 O.3   373  TIP373     -0.4105
    173  H1        19.6950   -4.7750   -6.2330 H     373  TIP373      0.2052
    174  H2        20.1170   -6.1650   -6.0110 H     373  TIP373      0.2052
    175  OH2      -15.5320   -1.0260   11.6990 O.3   374  TIP374     -0.4105
    176  H1       -14.5610   -0.9460   11.6270 H     374  TIP374      0.2052
    177  H2       -15.7160   -0.7250   12.6000 H     374  TIP374      0.2052
    178  OH2      -10.9750  -15.2790  -11.5440 O.3   375  TIP375     -0.4105
    179  H1       -11.4670  -14.4520  -11.5490 H     375  TIP375      0.2052
    180  H2       -11.6010  -15.9000  -11.1570 H     375  TIP375      0.2052
    181  OH2      -20.2320    2.1180   -3.2550 O.3   376  TIP376     -0.4105
    182  H1       -20.9040    2.3920   -2.6120 H     376  TIP376      0.2052
    183  H2       -20.3140    2.8010   -3.9530 H     376  TIP376      0.2052
    184  OH2        4.1030  -12.3310    8.8140 O.3   377  TIP377     -0.4105
    185  H1         4.4730  -13.2190    8.9700 H     377  TIP377      0.2052
    186  H2         3.1550  -12.4960    8.6900 H     377  TIP377      0.2052
    187  OH2       14.0980  -14.9280   12.5600 O.3   378  TIP378     -0.4105
    188  H1        13.2520  -14.9070   13.0260 H     378  TIP378      0.2052
    189  H2        13.7840  -15.3880   11.7480 H     378  TIP378      0.2052
    190  OH2        1.3580  -12.8120    8.8570 O.3   379  TIP379     -0.4105
    191  H1         1.7210  -13.1870    9.6730 H     379  TIP379      0.2052
    192  H2         0.4990  -12.5100    9.1810 H     379  TIP379      0.2052
    193  OH2      -15.6310  -12.4500    0.7900 O.3   380  TIP380     -0.4105
    194  H1       -15.0020  -12.6000    1.5060 H     380  TIP380      0.2052
    195  H2       -15.7750  -11.4920    0.8510 H     380  TIP380      0.2052
    196  OH2      -12.9010    3.0020   -9.1660 O.3   381  TIP381     -0.4105
    197  H1       -13.0740    3.6000   -9.9000 H     381  TIP381      0.2052
    198  H2       -13.7390    2.4920   -9.0960 H     381  TIP381      0.2052
    199  OH2       -9.3660   -3.1300  -11.5870 O.3   382  TIP382     -0.4105
    200  H1        -9.7870   -3.8190  -12.1110 H     382  TIP382      0.2052
    201  H2        -8.4330   -3.2690  -11.7690 H     382  TIP382      0.2052
    202  OH2        7.6480  -23.4550   -2.3990 O.3   383  TIP383     -0.4105
    203  H1         7.6020  -23.2580   -3.3370 H     383  TIP383      0.2052
    204  H2         7.7930  -22.5610   -2.0510 H     383  TIP383      0.2052
    205  OH2       13.4340   -7.3870    4.1150 O.3   384  TIP384     -0.4105
    206  H1        12.6040   -7.6900    4.4960 H     384  TIP384      0.2052
    207  H2        13.1590   -7.1800    3.1940 H     384  TIP384      0.2052
    208  OH2      -14.7820   11.4540   -0.0050 O.3   385  TIP385     -0.4105
    209  H1       -14.8140   11.8110   -0.9250 H     385  TIP385      0.2052
    210  H2       -15.7190   11.4460    0.2090 H     385  TIP385      0.2052
    211  OH2      -20.1750    3.8300   -5.0380 O.3   386  TIP386     -0.4105
    212  H1       -20.7400    4.3960   -5.5910 H     386  TIP386      0.2052
    213  H2       -19.2860    4.2110   -5.1700 H     386  TIP386      0.2052
    214  OH2      -20.9200    7.6470   -2.0110 O.3   387  TIP387     -0.4105
    215  H1       -21.8040    7.6170   -1.6360 H     387  TIP387      0.2052
    216  H2       -21.0790    7.2510   -2.8950 H     387  TIP387      0.2052
    217  OH2        0.6990   -0.7430   11.7420 O.3   388  TIP388     -0.4105
    218  H1         1.1490   -0.0320   11.2410 H     388  TIP388      0.2052
    219  H2        -0.1410   -0.8300   11.2870 H     388  TIP388      0.2052
    220  OH2       19.1860   13.5370    0.8670 O.3   389  TIP389     -0.4105
    221  H1        18.6850   13.1140    0.1450 H     389  TIP389      0.2052
    222  H2        18.7130   14.3720    0.9410 H     389  TIP389      0.2052
    223  OH2      -12.9690   -0.9610   11.6210 O.3   390  TIP390     -0.4105
    224  H1       -12.1450   -0.4640   11.7030 H     390  TIP390      0.2052
    225  H2       -12.9590   -1.4990   12.4280 H     390  TIP390      0.2052
    226  OH2       12.1580   13.2890   -0.4010 O.3   391  TIP391     -0.4105
    227  H1        12.3950   14.1980   -0.6790 H     391  TIP391      0.2052
    228  H2        12.8740   13.0620    0.2110 H     391  TIP391      0.2052
    229  OH2       -9.5500    9.4630  -12.0830 O.3   392  TIP392     -0.4105
    230  H1        -9.4390    8.8950  -11.3170 H     392  TIP392      0.2052
    231  H2       -10.1190    8.9560  -12.6890 H     392  TIP392      0.2052
    232  OH2      -13.8720   10.2690    2.8370 O.3   393  TIP393     -0.4105
    233  H1       -13.7600   10.8730    2.0930 H     393  TIP393      0.2052
    234  H2       -13.2920   10.6760    3.5300 H     393  TIP393      0.2052
    235  OH2      -21.2210    5.8250  -10.4120 O.3   394  TIP394     -0.4105
    236  H1       -21.4140    4.9480  -10.0490 H     394  TIP394      0.2052
    237  H2       -20.4000    6.0450   -9.9550 H     394  TIP394      0.2052
    238  OH2        1.8780  -10.7730   -9.6160 O.3   395  TIP395     -0.4105
    239  H1         1.4250  -10.8430  -10.4650 H     395  TIP395      0.2052
    240  H2         1.2600  -10.2100   -9.1090 H     395  TIP395      0.2052
    241  OH2       15.3940    8.9660  -11.6740 O.3   396  TIP396     -0.4105
    242  H1        15.9090    8.7880  -12.4700 H     396  TIP396      0.2052
    243  H2        16.1230    8.9770  -11.0090 H     396  TIP396      0.2052
    244  OH2      -18.0800   -1.5460    9.6510 O.3   397  TIP397     -0.4105
    245  H1       -17.3750   -1.5960   10.3100 H     397  TIP397      0.2052
    246  H2       -17.7380   -2.1190    8.9400 H     397  TIP397      0.2052
    247  OH2       -9.7290   11.8880   -1.4050 O.3   398  TIP398     -0.4105
    248  H1        -9.2710   11.0610   -1.1560 H     398  TIP398      0.2052
    249  H2       -10.6120   11.7660   -1.0410 H     398  TIP398      0.2052
    250  OH2       -9.0720   15.5000    0.4280 O.3   399  TIP399     -0.4105
    251  H1        -8.4320   14.7760    0.3920 H     399  TIP399      0.2052
    252  H2        -8.6680   16.1240    1.0390 H     399  TIP399      0.2052
    253  OH2      -13.9270    5.2090   12.8420 O.3   400  TIP400     -0.4105
    254  H1       -14.1910    4.3220   13.1190 H     400  TIP400      0.2052
    255  H2       -13.9360    5.6990   13.6810 H     400  TIP400      0.2052
    256  OH2      -21.0250   13.1950   -0.3170 O.3   401  TIP401     -0.4105
    257  H1       -20.3500   13.1140    0.3570 H     401  TIP401      0.2052
    258  H2       -20.5400   13.7300   -0.9760 H     401  TIP401      0.2052
    259  OH2      -18.6880   -9.0870    5.9660 O.3   402  TIP402     -0.4105
    260  H1       -19.2630   -8.3720    6.2600 H     402  TIP402      0.2052
    261  H2       -17.9780   -8.6050    5.5250 H     402  TIP402      0.2052
    262  OH2      -22.2760    3.4790   -1.6540 O.3   403  TIP403     -0.4105
    263  H1       -22.3820    3.7210   -2.5840 H     403  TIP403      0.2052
    264  H2       -22.8340    4.1500   -1.2430 H     403  TIP403      0.2052
    265  OH2       11.4400   13.8560    9.8370 O.3   404  TIP404     -0.4105
    266  H1        12.3840   13.6380    9.8500 H     404  TIP404      0.2052
    267  H2        11.4680   14.8100    9.7130 H     404  TIP404      0.2052
    268  OH2      -10.3600    4.1410  -14.4540 O.3   405  TIP405     -0.4105
    269  H1       -10.5940    3.2260  -14.2460 H     405  TIP405      0.2052
    270  H2       -10.6690    4.6170  -13.6660 H     405  TIP405      0.2052
    271  OH2        0.9490   -7.1860  -12.6180 O.3   406  TIP406     -0.4105
    272  H1         0.8170   -6.5360  -13.3270 H     406  TIP406      0.2052
    273  H2         1.9080   -7.2140  -12.5130 H     406  TIP406      0.2052
    274  OH2      -20.5250   -1.0980   -2.0450 O.3   407  TIP407     -0.4105
    275  H1       -20.5270   -2.0130   -1.7360 H     407  TIP407      0.2052
    276  H2       -19.8120   -0.6960   -1.5170 H     407  TIP407      0.2052
    277  OH2       14.2140   12.1380    5.3940 O.3   408  TIP408     -0.4105
    278  H1        13.9170   12.0520    6.3070 H     408  TIP408      0.2052
    279  H2        13.9230   13.0390    5.1650 H     408  TIP408      0.2052
    280  OH2      -15.1630   12.4810   -2.3970 O.3   409  TIP409     -0.4105
    281  H1       -15.3370   12.0120   -3.2520 H     409  TIP409      0.2052
    282  H2       -14.9020   13.3530   -2.7310 H     409  TIP409      0.2052
    283  OH2       16.3870  -10.2730   -2.4240 O.3   410  TIP410     -0.4105
    284  H1        17.2060   -9.8010   -2.2080 H     410  TIP410      0.2052
    285  H2        15.7780   -9.5190   -2.5340 H     410  TIP410      0.2052
    286  OH2        0.9150   13.4060   14.6130 O.3   411  TIP411     -0.4105
    287  H1         1.1500   14.1790   14.0660 H     411  TIP411      0.2052
    288  H2         0.8680   12.7030   13.9340 H     411  TIP411      0.2052
    289  OH2       -8.8690   13.5610  -10.1630 O.3   412  TIP412     -0.4105
    290  H1        -9.6450   13.0340  -10.3920 H     412  TIP412      0.2052
    291  H2        -9.2560   14.4500  -10.0350 H     412  TIP412      0.2052
    292  OH2      -22.7770   -4.5340    0.0850 O.3   413  TIP413     -0.4105
    293  H1       -23.1760   -4.2170    0.9060 H     413  TIP413      0.2052
    294  H2       -21.8370   -4.2440    0.2110 H     413  TIP413      0.2052
    295  OH2      -22.4830   -2.8430    2.9020 O.3   414  TIP414     -0.4105
    296  H1       -21.7030   -3.4170    2.9370 H     414  TIP414      0.2052
    297  H2       -22.1900   -2.1560    2.2810 H     414  TIP414      0.2052
    298  OH2      -20.7590    1.1110    2.2150 O.3   415  TIP415     -0.4105
    299  H1       -19.9300    0.6490    2.3650 H     415  TIP415      0.2052
    300  H2       -21.2600    0.4220    1.7420 H     415  TIP415      0.2052
    301  OH2       11.5780   -3.3770    7.0590 O.3   416  TIP416     -0.4105
    302  H1        12.0520   -4.1080    6.6510 H     416  TIP416      0.2052
    303  H2        11.5170   -3.6980    7.9820 H     416  TIP416      0.2052
    304  OH2       -6.1620   -2.9520   12.4350 O.3   417  TIP417     -0.4105
    305  H1        -5.4220   -3.3260   12.9390 H     417  TIP417      0.2052
    306  H2        -5.8800   -3.0890   11.5230 H     417  TIP417      0.2052
    307  OH2       15.8150  -15.4050   -0.7160 O.3   418  TIP418     -0.4105
    308  H1        15.1680  -15.3320   -1.4320 H     418  TIP418      0.2052
    309  H2        16.1540  -14.5080   -0.6430 H     418  TIP418      0.2052
    310  OH2       15.3180   -8.0570    2.6140 O.3   419  TIP419     -0.4105
    311  H1        14.6800   -8.1250    1.8680 H     419  TIP419      0.2052
    312  H2        14.7420   -7.7860    3.3500 H     419  TIP419      0.2052
    313  OH2       21.8190    2.6410   -8.4030 O.3   420  TIP420     -0.4105
    314  H1        22.5900    2.1360   -8.1190 H     420  TIP420      0.2052
    315  H2        22.2180    3.4370   -8.7770 H     420  TIP420      0.2052
    316  OH2       -9.4750   -1.1700   11.6700 O.3   421  TIP421     -0.4105
    317  H1       -10.0300   -1.9320   11.8540 H     421  TIP421      0.2052
    318  H2        -9.0910   -1.4380   10.8140 H     421  TIP421      0.2052
    319  OH2        1.6630   -1.7310  -15.9060 O.3   422  TIP422     -0.4105
    320  H1         1.6790   -0.8540  -16.3150 H     422  TIP422      0.2052
    321  H2         1.9750   -2.3070  -16.6140 H     422  TIP422      0.2052
    322  OH2       -2.1620    3.6370   12.2800 O.3   423  TIP423     -0.4105
    323  H1        -2.4790    4.2440   11.6010 H     423  TIP423      0.2052
    324  H2        -1.6460    4.1910   12.8860 H     423  TIP423      0.2052
    325  OH2        8.4100  -21.3660    1.1760 O.3   424  TIP424     -0.4105
    326  H1         7.4630  -21.4250    1.4440 H     424  TIP424      0.2052
    327  H2         8.6240  -22.3020    1.1710 H     424  TIP424      0.2052
    328  OH2        8.1810  -23.5500    0.5980 O.3   425  TIP425     -0.4105
    329  H1         8.0460  -24.4670    0.8470 H     425  TIP425      0.2052
    330  H2         7.8000  -23.5000   -0.2880 H     425  TIP425      0.2052
    331  OH2       12.3400   -0.5530    7.5130 O.3   426  TIP426     -0.4105
    332  H1        13.1610   -0.4850    8.0420 H     426  TIP426      0.2052
    333  H2        12.1690   -1.5090    7.5290 H     426  TIP426      0.2052
    334  OH2       -2.0080    7.1300   11.9820 O.3   427  TIP427     -0.4105
    335  H1        -1.9640    8.0900   12.0530 H     427  TIP427      0.2052
    336  H2        -2.9460    6.9310   12.1000 H     427  TIP427      0.2052
    337  OH2      -18.3300    3.6720   -8.6970 O.3   428  TIP428     -0.4105
    338  H1       -18.4750    4.4850   -8.1860 H     428  TIP428      0.2052
    339  H2       -18.3870    3.9850   -9.6020 H     428  TIP428      0.2052
    340  OH2       19.1370   -6.5450   -3.6010 O.3   429  TIP429     -0.4105
    341  H1        19.1370   -6.4400   -4.5610 H     429  TIP429      0.2052
    342  H2        19.2030   -7.4930   -3.4060 H     429  TIP429      0.2052
    343  OH2        6.8770   11.9660   -5.1740 O.3   430  TIP430     -0.4105
    344  H1         7.0360   12.9030   -4.9680 H     430  TIP430      0.2052
    345  H2         7.0920   11.9730   -6.1100 H     430  TIP430      0.2052
    346  OH2        5.9420    7.5270   16.3010 O.3   431  TIP431     -0.4105
    347  H1         6.1620    6.6640   15.9350 H     431  TIP431      0.2052
    348  H2         5.8510    8.0760   15.5040 H     431  TIP431      0.2052
    349  OH2      -22.3780    3.5960   -7.0360 O.3   432  TIP432     -0.4105
    350  H1       -22.6690    2.6720   -7.1990 H     432  TIP432      0.2052
    351  H2       -22.9750    3.8610   -6.3260 H     432  TIP432      0.2052
    352  OH2       12.2960  -21.2030   -2.0540 O.3   433  TIP433     -0.4105
    353  H1        12.1700  -20.2410   -1.8960 H     433  TIP433      0.2052
    354  H2        11.6630  -21.5310   -1.4110 H     433  TIP433      0.2052
    355  OH2       20.2610   10.4740   -0.3330 O.3   434  TIP434     -0.4105
    356  H1        20.9510   10.9510    0.1440 H     434  TIP434      0.2052
    357  H2        19.5460   11.1180   -0.4410 H     434  TIP434      0.2052
    358  OH2       14.5200  -18.5100    0.8850 O.3   435  TIP435     -0.4105
    359  H1        15.4760  -18.4770    1.0600 H     435  TIP435      0.2052
    360  H2        14.4810  -18.4660   -0.0830 H     435  TIP435      0.2052
    361  OH2      -19.8990   -5.0870    5.3310 O.3   436  TIP436     -0.4105
    362  H1       -19.9890   -4.3930    4.6620 H     436  TIP436      0.2052
    363  H2       -20.0510   -4.6750    6.2070 H     436  TIP436      0.2052
    364  OH2        7.2210   13.7630    9.3330 O.3   437  TIP437     -0.4105
    365  H1         7.1490   13.0900   10.0270 H     437  TIP437      0.2052
    366  H2         6.3090   13.9790    9.0860 H     437  TIP437      0.2052
    367  OH2      -10.8490    4.5100  -10.9670 O.3   438  TIP438     -0.4105
    368  H1       -10.1360    4.9400  -10.4860 H     438  TIP438      0.2052
    369  H2       -10.7040    3.5770  -10.7270 H     438  TIP438      0.2052
    370  OH2        2.9640   -0.6860   13.1380 O.3   439  TIP439     -0.4105
    371  H1         2.1450   -0.8740   12.6320 H     439  TIP439      0.2052
    372  H2         2.6250   -0.0850   13.8060 H     439  TIP439      0.2052
    373  OH2       11.1340    1.7870   16.2110 O.3   440  TIP440     -0.4105
    374  H1        11.5830    1.3220   16.9370 H     440  TIP440      0.2052
    375  H2        11.8440    2.3240   15.8150 H     440  TIP440      0.2052
    376  OH2        6.6590    9.0290  -10.9220 O.3   441  TIP441     -0.4105
    377  H1         7.3620    8.5490  -10.4360 H     441  TIP441      0.2052
    378  H2         7.0910    9.1350  -11.7820 H     441  TIP441      0.2052
    379  OH2      -11.3330   13.9000   -4.8070 O.3   442  TIP442     -0.4105
    380  H1       -11.7680   14.2010   -3.9970 H     442  TIP442      0.2052
    381  H2       -10.4050   13.8540   -4.5080 H     442  TIP442      0.2052
    382  OH2      -21.6070   -1.4010    1.1020 O.3   443  TIP443     -0.4105
    383  H1       -21.6110   -1.0550    0.1940 H     443  TIP443      0.2052
    384  H2       -21.1020   -2.2380    0.9510 H     443  TIP443      0.2052
    385  OH2       18.9950   -8.2900   -2.1220 O.3   444  TIP444     -0.4105
    386  H1        19.4550   -8.6120   -1.3120 H     444  TIP444      0.2052
    387  H2        18.2470   -7.8100   -1.7170 H     444  TIP444      0.2052
    388  OH2      -20.2060   -4.7120    7.7740 O.3   445  TIP445     -0.4105
    389  H1       -21.0520   -5.1080    8.0220 H     445  TIP445      0.2052
    390  H2       -19.8870   -4.4470    8.6510 H     445  TIP445      0.2052
    391  OH2       -0.6840  -12.4310  -11.2800 O.3   446  TIP446     -0.4105
    392  H1        -1.2740  -12.5350  -12.0400 H     446  TIP446      0.2052
    393  H2        -0.7120  -13.3060  -10.8620 H     446  TIP446      0.2052
    394  OH2       11.3020   -4.9270    9.6060 O.3   447  TIP447     -0.4105
    395  H1        11.5890   -4.7250   10.5260 H     447  TIP447      0.2052
    396  H2        10.7140   -5.6780    9.8010 H     447  TIP447      0.2052
    397  OH2       -3.5040  -14.3410   -0.8040 O.3   448  TIP448     -0.4105
    398  H1        -3.8070  -14.1900    0.1020 H     448  TIP448      0.2052
    399  H2        -3.8490  -15.2460   -0.9700 H     448  TIP448      0.2052
    400  OH2       16.5160    0.6700    3.7710 O.3   449  TIP449     -0.4105
    401  H1        15.8240    1.1350    4.2790 H     449  TIP449      0.2052
    402  H2        17.0560    0.2730    4.4610 H     449  TIP449      0.2052
    403  OH2       -5.3470   10.0010   11.9810 O.3   450  TIP450     -0.4105
    404  H1        -5.4560   10.9170   11.6950 H     450  TIP450      0.2052
    405  H2        -5.9560    9.9600   12.7300 H     450  TIP450      0.2052
    406  OH2       -8.4330    3.3940   12.3500 O.3   451  TIP451     -0.4105
    407  H1        -7.7990    2.7360   12.0820 H     451  TIP451      0.2052
    408  H2        -7.8890    4.0490   12.8110 H     451  TIP451      0.2052
    409  OH2      -15.4130    5.6790  -11.0680 O.3   452  TIP452     -0.4105
    410  H1       -15.2880    4.8020  -11.4340 H     452  TIP452      0.2052
    411  H2       -15.3330    5.5430  -10.1040 H     452  TIP452      0.2052
    412  OH2       14.4680    1.8570    5.0360 O.3   453  TIP453     -0.4105
    413  H1        14.3810    2.0860    5.9690 H     453  TIP453      0.2052
    414  H2        14.4210    2.7420    4.6170 H     453  TIP453      0.2052
    415  OH2       15.7120   16.4760   -0.3820 O.3   454  TIP454     -0.4105
    416  H1        16.6340   16.4090   -0.6650 H     454  TIP454      0.2052
    417  H2        15.7470   16.0090    0.4830 H     454  TIP454      0.2052
    418  OH2       12.8220   15.6760   -1.3550 O.3   455  TIP455     -0.4105
    419  H1        12.2980   16.4880   -1.3470 H     455  TIP455      0.2052
    420  H2        13.6940   16.0160   -1.0850 H     455  TIP455      0.2052
    421  OH2       13.2060   13.1210   -4.0410 O.3   456  TIP456     -0.4105
    422  H1        12.4800   12.5220   -4.2840 H     456  TIP456      0.2052
    423  H2        12.8720   13.4140   -3.1850 H     456  TIP456      0.2052
    424  OH2        8.3100    1.4130  -13.4740 O.3   457  TIP457     -0.4105
    425  H1         8.5010    1.4600  -14.4180 H     457  TIP457      0.2052
    426  H2         8.9510    2.0340  -13.1090 H     457  TIP457      0.2052
    427  OH2      -17.1230    7.0700    4.8370 O.3   458  TIP458     -0.4105
    428  H1       -17.9690    6.8970    4.3960 H     458  TIP458      0.2052
    429  H2       -16.8820    7.9500    4.4890 H     458  TIP458      0.2052
    430  OH2       -9.9770  -13.1280   -5.8760 O.3   459  TIP459     -0.4105
    431  H1       -10.1550  -13.8620   -5.2740 H     459  TIP459      0.2052
    432  H2       -10.6510  -12.4830   -5.5960 H     459  TIP459      0.2052
    433  OH2       -7.5270  -12.4220   -6.2960 O.3   460  TIP460     -0.4105
    434  H1        -8.4320  -12.6350   -5.9780 H     460  TIP460      0.2052
    435  H2        -7.7180  -12.4440   -7.2520 H     460  TIP460      0.2052
    436  OH2      -16.0430    9.7580    4.2110 O.3   461  TIP461     -0.4105
    437  H1       -15.2410    9.8670    3.6550 H     461  TIP461      0.2052
    438  H2       -16.3260   10.6670    4.3340 H     461  TIP461      0.2052
    439  OH2       14.7580  -15.3760    8.3180 O.3   462  TIP462     -0.4105
    440  H1        14.4580  -15.8930    7.5650 H     462  TIP462      0.2052
    441  H2        14.1400  -15.6700    9.0230 H     462  TIP462      0.2052
    442  OH2      -12.9650  -12.1420    7.4610 O.3   463  TIP463     -0.4105
    443  H1       -13.2390  -12.2820    6.5300 H     463  TIP463      0.2052
    444  H2       -13.8760  -11.8940    7.6830 H     463  TIP463      0.2052
    445  OH2       23.2090    7.1230   -3.4860 O.3   464  TIP464     -0.4105
    446  H1        23.4140    7.1620   -2.5450 H     464  TIP464      0.2052
    447  H2        23.4350    6.1830   -3.6720 H     464  TIP464      0.2052
    448  OH2        6.4990   -9.8720   -9.4100 O.3   465  TIP465     -0.4105
    449  H1         7.0380   -9.0720   -9.4420 H     465  TIP465      0.2052
    450  H2         6.7070  -10.2840  -10.2640 H     465  TIP465      0.2052
    451  OH2       17.3600    6.8300   -8.1950 O.3   466  TIP466     -0.4105
    452  H1        18.1610    6.7620   -7.6400 H     466  TIP466      0.2052
    453  H2        17.5940    7.5600   -8.8110 H     466  TIP466      0.2052
    454  OH2      -21.7480    3.5900    1.6860 O.3   467  TIP467     -0.4105
    455  H1       -21.8260    3.3740    0.7460 H     467  TIP467      0.2052
    456  H2       -21.2660    2.7960    2.0080 H     467  TIP467      0.2052
    457  OH2       -0.4790    4.5380   14.2600 O.3   468  TIP468     -0.4105
    458  H1        -1.0510    5.0150   14.8800 H     468  TIP468      0.2052
    459  H2         0.0120    5.2810   13.8530 H     468  TIP468      0.2052
@<TRIPOS>BOND
     1   321   319    1
     2   320   319    1
     3    41    40    1
     4   268   269    1
     5   268   270    1
     6   425   424    1
     7   151   153    1
     8   151   152    1
     9    40    42    1
    10   424   426    1
    11   272   271    1
    12   102   100    1
    13   101   100    1
    14    68    67    1
    15    69    67    1
    16   231   229    1
    17   271   273    1
    18   242   241    1
    19   200   199    1
    20   229   230    1
    21   392   391    1
    22    59    58    1
    23    58    60    1
    24   378   376    1
    25   201   199    1
    26   241   243    1
    27   179   178    1
    28   178   180    1
    29   410   409    1
    30   391   393    1
    31    23    22    1
    32   163   165    1
    33   163   164    1
    34   409   411    1
    35   367   369    1
    36   367   368    1
    37    90    88    1
    38    13    15    1
    39    13    14    1
    40   376   377    1
    41     2     1    1
    42    22    24    1
    43     1     3    1
    44   239   238    1
    45   235   236    1
    46   235   237    1
    47    88    89    1
    48   290   289    1
    49   450   448    1
    50   289   291    1
    51   197   196    1
    52   238   240    1
    53   339   337    1
    54     9     7    1
    55   449   448    1
    56   119   118    1
    57   196   198    1
    58    49    51    1
    59    49    50    1
    60   113   112    1
    61   118   120    1
    62    81    79    1
    63     7     8    1
    64   453   451    1
    65   315   313    1
    66   337   338    1
    67    79    80    1
    68   112   114    1
    69   313   314    1
    70   451   452    1
    71    45    43    1
    72   117   115    1
    73   435   433    1
    74   350   349    1
    75   130   131    1
    76   130   132    1
    77   111   109    1
    78   349   351    1
    79   116   115    1
    80   109   110    1
    81    43    44    1
    82   433   434    1
    83   173   172    1
    84   345   343    1
    85   174   172    1
    86   430   432    1
    87   430   431    1
    88    77    76    1
    89   171   169    1
    90   212   211    1
    91    26    25    1
    92   343   344    1
    93   213   211    1
    94   169   170    1
    95    76    78    1
    96   379   381    1
    97   379   380    1
    98    25    27    1
    99   341   340    1
   100   422   421    1
   101   421   423    1
   102   183   181    1
   103    36    34    1
   104   447   445    1
   105   340   342    1
   106   445   446    1
   107    34    35    1
   108   203   202    1
   109   181   182    1
   110   281   280    1
   111   147   145    1
   112   216   214    1
   113     4     6    1
   114     4     5    1
   115   282   280    1
   116   263   262    1
   117   146   145    1
   118   285   283    1
   119   283   284    1
   120   202   204    1
   121   385   387    1
   122   385   386    1
   123   352   353    1
   124   352   354    1
   125   274   275    1
   126   274   276    1
   127   214   215    1
   128    33    31    1
   129   262   264    1
   130   161   160    1
   131    31    32    1
   132   308   307    1
   133   247   248    1
   134   247   249    1
   135   418   419    1
   136   418   420    1
   137   258   256    1
   138   399   397    1
   139   209   208    1
   140   397   398    1
   141   307   309    1
   142   160   162    1
   143   227   226    1
   144   416   415    1
   145   357   355    1
   146   226   228    1
   147   415   417    1
   148   355   356    1
   149   256   257    1
   150   330   328    1
   151    87    85    1
   152   360   358    1
   153   208   210    1
   154   292   294    1
   155   292   293    1
   156   221   220    1
   157   383   382    1
   158   133   134    1
   159   133   135    1
   160   251   250    1
   161   250   252    1
   162   328   329    1
   163    86    85    1
   164   455   454    1
   165   193   195    1
   166   193   194    1
   167   220   222    1
   168   167   166    1
   169   358   359    1
   170   384   382    1
   171   327   325    1
   172   325   326    1
   173    47    46    1
   174   166   168    1
   175   157   159    1
   176   157   158    1
   177    46    48    1
   178   454   456    1
   179   300   298    1
   180   311   310    1
   181   233   232    1
   182   298   299    1
   183   297   295    1
   184   310   312    1
   185   232   234    1
   186   295   296    1
   187   137   136    1
   188   207   205    1
   189   136   138    1
   190   437   436    1
   191   400   401    1
   192   400   402    1
   193   205   206    1
   194   436   438    1
   195   428   427    1
   196    53    52    1
   197   429   427    1
   198   414   412    1
   199   362   361    1
   200    38    37    1
   201    37    39    1
   202    99    97    1
   203   412   413    1
   204    54    52    1
   205   279   277    1
   206   361   363    1
   207   277   278    1
   208    97    98    1
   209   261   259    1
   210   121   122    1
   211   121   123    1
   212   259   260    1
   213    82    83    1
   214    82    84    1
   215   443   442    1
   216   302   301    1
   217   301   303    1
   218   442   444    1
   219   331   333    1
   220   331   332    1
   221   440   439    1
   222   388   389    1
   223   388   390    1
   224   439   441    1
   225    29    28    1
   226    28    30    1
   227   186   184    1
   228   184   185    1
   229   190   192    1
   230   190   191    1
   231    57    55    1
   232   246   244    1
   233   366   364    1
   234   142   144    1
   235   142   143    1
   236   364   365    1
   237   108   106    1
   238   394   396    1
   239   394   395    1
   240    94    96    1
   241    94    95    1
   242   244   245    1
   243    55    56    1
   244   267   265    1
   245   106   107    1
   246   265   266    1
   247    10    11    1
   248    10    12    1
   249   104   103    1
   250    92    91    1
   251   141   139    1
   252   318   316    1
   253   139   140    1
   254   127   129    1
   255   127   128    1
   256   103   105    1
   257   218   217    1
   258   219   217    1
   259    91    93    1
   260   125   124    1
   261   306   304    1
   262   323   322    1
   263   223   224    1
   264   223   225    1
   265   176   175    1
   266   316   317    1
   267   404   403    1
   268   175   177    1
   269   189   187    1
   270   124   126    1
   271    74    73    1
   272   403   405    1
   273   334   335    1
   274   334   336    1
   275   407   406    1
   276    73    75    1
   277   322   324    1
   278   406   408    1
   279   304   305    1
   280   187   188    1
   281   371   370    1
   282   148   150    1
   283   148   149    1
   284   253   254    1
   285   253   255    1
   286   370   372    1
   287    20    19    1
   288   459   457    1
   289   155   154    1
   290   288   286    1
   291    70    71    1
   292    70    72    1
   293   287   286    1
   294   457   458    1
   295    19    21    1
   296   154   156    1
   297    64    66    1
   298    64    65    1
   299   348   346    1
   300    17    16    1
   301   375   373    1
   302    62    61    1
   303   347   346    1
   304    18    16    1
   305   373   374    1
   306    61    63    1
