lig
 OpenBabel06172516522D

459306  0  0  0  0  0  0  0  0999 V2000
   26.4904   -3.0000    0.0000 O   0  0  0  0  0  0  0  0  0  0  0  0
   27.3564   -3.5000    0.0000 H   0  0  0  0  0  0  0  0  0  0  0  0
   25.6244   -3.5000    0.0000 H   0  0  0  0  0  0  0  0  0  0  0  0
   26.4904   -6.0000    0.0000 O   0  0  0  0  0  0  0  0  0  0  0  0
   25.6244   -5.5000    0.0000 H   0  0  0  0  0  0  0  0  0  0  0  0
   27.3564   -5.5000    0.0000 H   0  0  0  0  0  0  0  0  0  0  0  0
   30.2224  -18.5000    0.0000 O   0  0  0  0  0  0  0  0  0  0  0  0
   29.3564  -18.0000    0.0000 H   0  0  0  0  0  0  0  0  0  0  0  0
   31.0885  -18.0000    0.0000 H   0  0  0  0  0  0  0  0  0  0  0  0
    7.8301  -21.0000    0.0000 O   0  0  0  0  0  0  0  0  0  0  0  0
    6.9641  -20.5000    0.0000 H   0  0  0  0  0  0  0  0  0  0  0  0
    8.6962  -20.5000    0.0000 H   0  0  0  0  0  0  0  0  0  0  0  0
   41.4186   -6.0000    0.0000 O   0  0  0  0  0  0  0  0  0  0  0  0
   40.5526   -5.5000    0.0000 H   0  0  0  0  0  0  0  0  0  0  0  0
   42.2846   -5.5000    0.0000 H   0  0  0  0  0  0  0  0  0  0  0  0
   11.5622  -28.0000    0.0000 O   0  0  0  0  0  0  0  0  0  0  0  0
   12.4282  -28.5000    0.0000 H   0  0  0  0  0  0  0  0  0  0  0  0
   10.6962  -28.5000    0.0000 H   0  0  0  0  0  0  0  0  0  0  0  0
   37.6865  -28.0000    0.0000 O   0  0  0  0  0  0  0  0  0  0  0  0
   38.5526  -28.5000    0.0000 H   0  0  0  0  0  0  0  0  0  0  0  0
   36.8205  -28.5000    0.0000 H   0  0  0  0  0  0  0  0  0  0  0  0
   41.4186   -3.0000    0.0000 O   0  0  0  0  0  0  0  0  0  0  0  0
   42.2846   -3.5000    0.0000 H   0  0  0  0  0  0  0  0  0  0  0  0
   40.5526   -3.5000    0.0000 H   0  0  0  0  0  0  0  0  0  0  0  0
   11.5622  -20.5000    0.0000 O   0  0  0  0  0  0  0  0  0  0  0  0
   12.4282  -21.0000    0.0000 H   0  0  0  0  0  0  0  0  0  0  0  0
   10.6962  -21.0000    0.0000 H   0  0  0  0  0  0  0  0  0  0  0  0
    1.3660  -14.5000    0.0000 O   0  0  0  0  0  0  0  0  0  0  0  0
    2.2321  -15.0000    0.0000 H   0  0  0  0  0  0  0  0  0  0  0  0
    0.5000  -15.0000    0.0000 H   0  0  0  0  0  0  0  0  0  0  0  0
   22.7583   -3.5000    0.0000 O   0  0  0  0  0  0  0  0  0  0  0  0
   21.8923   -3.0000    0.0000 H   0  0  0  0  0  0  0  0  0  0  0  0
   23.6244   -3.0000    0.0000 H   0  0  0  0  0  0  0  0  0  0  0  0
   22.7583   -6.0000    0.0000 O   0  0  0  0  0  0  0  0  0  0  0  0
   21.8923   -5.5000    0.0000 H   0  0  0  0  0  0  0  0  0  0  0  0
   23.6244   -5.5000    0.0000 H   0  0  0  0  0  0  0  0  0  0  0  0
   22.7583   -8.0000    0.0000 O   0  0  0  0  0  0  0  0  0  0  0  0
   23.6244   -8.5000    0.0000 H   0  0  0  0  0  0  0  0  0  0  0  0
   21.8923   -8.5000    0.0000 H   0  0  0  0  0  0  0  0  0  0  0  0
   22.7583  -10.5000    0.0000 O   0  0  0  0  0  0  0  0  0  0  0  0
   23.6244  -11.0000    0.0000 H   0  0  0  0  0  0  0  0  0  0  0  0
   21.8923  -11.0000    0.0000 H   0  0  0  0  0  0  0  0  0  0  0  0
   22.7583  -13.5000    0.0000 O   0  0  0  0  0  0  0  0  0  0  0  0
   21.8923  -13.0000    0.0000 H   0  0  0  0  0  0  0  0  0  0  0  0
   23.6244  -13.0000    0.0000 H   0  0  0  0  0  0  0  0  0  0  0  0
    7.8301  -15.5000    0.0000 O   0  0  0  0  0  0  0  0  0  0  0  0
    8.6962  -16.0000    0.0000 H   0  0  0  0  0  0  0  0  0  0  0  0
    6.9641  -16.0000    0.0000 H   0  0  0  0  0  0  0  0  0  0  0  0
   11.5622  -16.0000    0.0000 O   0  0  0  0  0  0  0  0  0  0  0  0
   10.6962  -15.5000    0.0000 H   0  0  0  0  0  0  0  0  0  0  0  0
   12.4282  -15.5000    0.0000 H   0  0  0  0  0  0  0  0  0  0  0  0
   15.2942  -15.5000    0.0000 O   0  0  0  0  0  0  0  0  0  0  0  0
   16.1603  -16.0000    0.0000 H   0  0  0  0  0  0  0  0  0  0  0  0
   14.4282  -16.0000    0.0000 H   0  0  0  0  0  0  0  0  0  0  0  0
   15.2942  -28.5000    0.0000 O   0  0  0  0  0  0  0  0  0  0  0  0
   14.4282  -28.0000    0.0000 H   0  0  0  0  0  0  0  0  0  0  0  0
   16.1603  -28.0000    0.0000 H   0  0  0  0  0  0  0  0  0  0  0  0
   19.0263  -28.0000    0.0000 O   0  0  0  0  0  0  0  0  0  0  0  0
   19.8923  -28.5000    0.0000 H   0  0  0  0  0  0  0  0  0  0  0  0
   18.1603  -28.5000    0.0000 H   0  0  0  0  0  0  0  0  0  0  0  0
   30.2224  -28.0000    0.0000 O   0  0  0  0  0  0  0  0  0  0  0  0
   31.0885  -28.5000    0.0000 H   0  0  0  0  0  0  0  0  0  0  0  0
   29.3564  -28.5000    0.0000 H   0  0  0  0  0  0  0  0  0  0  0  0
    4.0981   -1.0000    0.0000 O   0  0  0  0  0  0  0  0  0  0  0  0
    3.2321   -0.5000    0.0000 H   0  0  0  0  0  0  0  0  0  0  0  0
    4.9641   -0.5000    0.0000 H   0  0  0  0  0  0  0  0  0  0  0  0
   41.4186  -28.0000    0.0000 O   0  0  0  0  0  0  0  0  0  0  0  0
   42.2846  -28.5000    0.0000 H   0  0  0  0  0  0  0  0  0  0  0  0
   40.5526  -28.5000    0.0000 H   0  0  0  0  0  0  0  0  0  0  0  0
   44.1506   -1.0000    0.0000 O   0  0  0  0  0  0  0  0  0  0  0  0
   43.2846   -0.5000    0.0000 H   0  0  0  0  0  0  0  0  0  0  0  0
   45.0167   -0.5000    0.0000 H   0  0  0  0  0  0  0  0  0  0  0  0
    1.3660  -29.5000    0.0000 O   0  0  0  0  0  0  0  0  0  0  0  0
    2.2321  -30.0000    0.0000 H   0  0  0  0  0  0  0  0  0  0  0  0
    0.5000  -30.0000    0.0000 H   0  0  0  0  0  0  0  0  0  0  0  0
   45.1506   -3.0000    0.0000 O   0  0  0  0  0  0  0  0  0  0  0  0
   46.0167   -3.5000    0.0000 H   0  0  0  0  0  0  0  0  0  0  0  0
   44.2846   -3.5000    0.0000 H   0  0  0  0  0  0  0  0  0  0  0  0
   45.1506   -6.0000    0.0000 O   0  0  0  0  0  0  0  0  0  0  0  0
   44.2846   -5.5000    0.0000 H   0  0  0  0  0  0  0  0  0  0  0  0
   46.0167   -5.5000    0.0000 H   0  0  0  0  0  0  0  0  0  0  0  0
   45.1506  -18.5000    0.0000 O   0  0  0  0  0  0  0  0  0  0  0  0
   44.2846  -18.0000    0.0000 H   0  0  0  0  0  0  0  0  0  0  0  0
   46.0167  -18.0000    0.0000 H   0  0  0  0  0  0  0  0  0  0  0  0
   45.1506  -20.5000    0.0000 O   0  0  0  0  0  0  0  0  0  0  0  0
   46.0167  -21.0000    0.0000 H   0  0  0  0  0  0  0  0  0  0  0  0
   44.2846  -21.0000    0.0000 H   0  0  0  0  0  0  0  0  0  0  0  0
   45.1506  -23.5000    0.0000 O   0  0  0  0  0  0  0  0  0  0  0  0
   44.2846  -23.0000    0.0000 H   0  0  0  0  0  0  0  0  0  0  0  0
   46.0167  -23.0000    0.0000 H   0  0  0  0  0  0  0  0  0  0  0  0
   45.1506  -25.5000    0.0000 O   0  0  0  0  0  0  0  0  0  0  0  0
   46.0167  -26.0000    0.0000 H   0  0  0  0  0  0  0  0  0  0  0  0
   44.2846  -26.0000    0.0000 H   0  0  0  0  0  0  0  0  0  0  0  0
    5.0981  -15.0000    0.0000 O   0  0  0  0  0  0  0  0  0  0  0  0
    4.2321  -14.5000    0.0000 H   0  0  0  0  0  0  0  0  0  0  0  0
    5.9641  -14.5000    0.0000 H   0  0  0  0  0  0  0  0  0  0  0  0
    5.0981  -22.5000    0.0000 O   0  0  0  0  0  0  0  0  0  0  0  0
    4.2321  -22.0000    0.0000 H   0  0  0  0  0  0  0  0  0  0  0  0
    5.9641  -22.0000    0.0000 H   0  0  0  0  0  0  0  0  0  0  0  0
   33.9545  -23.0000    0.0000 O   0  0  0  0  0  0  0  0  0  0  0  0
   34.8205  -23.5000    0.0000 H   0  0  0  0  0  0  0  0  0  0  0  0
   33.0885  -23.5000    0.0000 H   0  0  0  0  0  0  0  0  0  0  0  0
   36.6865   -0.5000    0.0000 O   0  0  0  0  0  0  0  0  0  0  0  0
   37.5526   -1.0000    0.0000 H   0  0  0  0  0  0  0  0  0  0  0  0
   35.8205   -1.0000    0.0000 H   0  0  0  0  0  0  0  0  0  0  0  0
    1.3660  -25.0000    0.0000 O   0  0  0  0  0  0  0  0  0  0  0  0
    0.5000  -24.5000    0.0000 H   0  0  0  0  0  0  0  0  0  0  0  0
    2.2321  -24.5000    0.0000 H   0  0  0  0  0  0  0  0  0  0  0  0
    5.0981  -25.0000    0.0000 O   0  0  0  0  0  0  0  0  0  0  0  0
    4.2321  -24.5000    0.0000 H   0  0  0  0  0  0  0  0  0  0  0  0
    5.9641  -24.5000    0.0000 H   0  0  0  0  0  0  0  0  0  0  0  0
   37.6865   -3.0000    0.0000 O   0  0  0  0  0  0  0  0  0  0  0  0
   38.5526   -3.5000    0.0000 H   0  0  0  0  0  0  0  0  0  0  0  0
   36.8205   -3.5000    0.0000 H   0  0  0  0  0  0  0  0  0  0  0  0
   37.6865   -5.5000    0.0000 O   0  0  0  0  0  0  0  0  0  0  0  0
   38.5526   -6.0000    0.0000 H   0  0  0  0  0  0  0  0  0  0  0  0
   36.8205   -6.0000    0.0000 H   0  0  0  0  0  0  0  0  0  0  0  0
   37.6865   -8.0000    0.0000 O   0  0  0  0  0  0  0  0  0  0  0  0
   38.5526   -8.5000    0.0000 H   0  0  0  0  0  0  0  0  0  0  0  0
   36.8205   -8.5000    0.0000 H   0  0  0  0  0  0  0  0  0  0  0  0
   37.6865  -11.0000    0.0000 O   0  0  0  0  0  0  0  0  0  0  0  0
   36.8205  -10.5000    0.0000 H   0  0  0  0  0  0  0  0  0  0  0  0
   38.5526  -10.5000    0.0000 H   0  0  0  0  0  0  0  0  0  0  0  0
   37.6865  -13.0000    0.0000 O   0  0  0  0  0  0  0  0  0  0  0  0
   38.5526  -13.5000    0.0000 H   0  0  0  0  0  0  0  0  0  0  0  0
   36.8205  -13.5000    0.0000 H   0  0  0  0  0  0  0  0  0  0  0  0
   37.6865  -16.0000    0.0000 O   0  0  0  0  0  0  0  0  0  0  0  0
   36.8205  -15.5000    0.0000 H   0  0  0  0  0  0  0  0  0  0  0  0
   38.5526  -15.5000    0.0000 H   0  0  0  0  0  0  0  0  0  0  0  0
   37.6865  -18.5000    0.0000 O   0  0  0  0  0  0  0  0  0  0  0  0
   36.8205  -18.0000    0.0000 H   0  0  0  0  0  0  0  0  0  0  0  0
   38.5526  -18.0000    0.0000 H   0  0  0  0  0  0  0  0  0  0  0  0
   37.6865  -21.0000    0.0000 O   0  0  0  0  0  0  0  0  0  0  0  0
   36.8205  -20.5000    0.0000 H   0  0  0  0  0  0  0  0  0  0  0  0
   38.5526  -20.5000    0.0000 H   0  0  0  0  0  0  0  0  0  0  0  0
   37.6865  -23.0000    0.0000 O   0  0  0  0  0  0  0  0  0  0  0  0
   38.5526  -23.5000    0.0000 H   0  0  0  0  0  0  0  0  0  0  0  0
   36.8205  -23.5000    0.0000 H   0  0  0  0  0  0  0  0  0  0  0  0
    7.8301  -26.0000    0.0000 O   0  0  0  0  0  0  0  0  0  0  0  0
    6.9641  -25.5000    0.0000 H   0  0  0  0  0  0  0  0  0  0  0  0
    8.6962  -25.5000    0.0000 H   0  0  0  0  0  0  0  0  0  0  0  0
   11.5622  -26.0000    0.0000 O   0  0  0  0  0  0  0  0  0  0  0  0
   10.6962  -25.5000    0.0000 H   0  0  0  0  0  0  0  0  0  0  0  0
   12.4282  -25.5000    0.0000 H   0  0  0  0  0  0  0  0  0  0  0  0
   15.2942  -25.5000    0.0000 O   0  0  0  0  0  0  0  0  0  0  0  0
   16.1603  -26.0000    0.0000 H   0  0  0  0  0  0  0  0  0  0  0  0
   14.4282  -26.0000    0.0000 H   0  0  0  0  0  0  0  0  0  0  0  0
   19.0263  -26.0000    0.0000 O   0  0  0  0  0  0  0  0  0  0  0  0
   18.1603  -25.5000    0.0000 H   0  0  0  0  0  0  0  0  0  0  0  0
   19.8923  -25.5000    0.0000 H   0  0  0  0  0  0  0  0  0  0  0  0
   22.7583  -26.0000    0.0000 O   0  0  0  0  0  0  0  0  0  0  0  0
   21.8923  -25.5000    0.0000 H   0  0  0  0  0  0  0  0  0  0  0  0
   23.6244  -25.5000    0.0000 H   0  0  0  0  0  0  0  0  0  0  0  0
   26.4904  -25.5000    0.0000 O   0  0  0  0  0  0  0  0  0  0  0  0
   27.3564  -26.0000    0.0000 H   0  0  0  0  0  0  0  0  0  0  0  0
   25.6244  -26.0000    0.0000 H   0  0  0  0  0  0  0  0  0  0  0  0
   30.2224  -26.0000    0.0000 O   0  0  0  0  0  0  0  0  0  0  0  0
   29.3564  -25.5000    0.0000 H   0  0  0  0  0  0  0  0  0  0  0  0
   31.0885  -25.5000    0.0000 H   0  0  0  0  0  0  0  0  0  0  0  0
   33.9545  -25.5000    0.0000 O   0  0  0  0  0  0  0  0  0  0  0  0
   34.8205  -26.0000    0.0000 H   0  0  0  0  0  0  0  0  0  0  0  0
   33.0885  -26.0000    0.0000 H   0  0  0  0  0  0  0  0  0  0  0  0
   37.6865  -26.0000    0.0000 O   0  0  0  0  0  0  0  0  0  0  0  0
   36.8205  -25.5000    0.0000 H   0  0  0  0  0  0  0  0  0  0  0  0
   38.5526  -25.5000    0.0000 H   0  0  0  0  0  0  0  0  0  0  0  0
    1.3660   -0.5000    0.0000 O   0  0  0  0  0  0  0  0  0  0  0  0
    2.2321   -1.0000    0.0000 H   0  0  0  0  0  0  0  0  0  0  0  0
    0.5000   -1.0000    0.0000 H   0  0  0  0  0  0  0  0  0  0  0  0
    1.3660  -27.5000    0.0000 O   0  0  0  0  0  0  0  0  0  0  0  0
    0.5000  -27.0000    0.0000 H   0  0  0  0  0  0  0  0  0  0  0  0
    2.2321  -27.0000    0.0000 H   0  0  0  0  0  0  0  0  0  0  0  0
    5.0981  -27.0000    0.0000 O   0  0  0  0  0  0  0  0  0  0  0  0
    5.9641  -27.5000    0.0000 H   0  0  0  0  0  0  0  0  0  0  0  0
    4.2321  -27.5000    0.0000 H   0  0  0  0  0  0  0  0  0  0  0  0
   19.0263  -16.0000    0.0000 O   0  0  0  0  0  0  0  0  0  0  0  0
   19.8923  -15.5000    0.0000 H   0  0  0  0  0  0  0  0  0  0  0  0
   18.1603  -15.5000    0.0000 H   0  0  0  0  0  0  0  0  0  0  0  0
   30.2224  -16.0000    0.0000 O   0  0  0  0  0  0  0  0  0  0  0  0
   31.0885  -15.5000    0.0000 H   0  0  0  0  0  0  0  0  0  0  0  0
   29.3564  -15.5000    0.0000 H   0  0  0  0  0  0  0  0  0  0  0  0
   41.4186   -8.0000    0.0000 O   0  0  0  0  0  0  0  0  0  0  0  0
   40.5526   -8.5000    0.0000 H   0  0  0  0  0  0  0  0  0  0  0  0
   42.2846   -8.5000    0.0000 H   0  0  0  0  0  0  0  0  0  0  0  0
   41.4186  -10.5000    0.0000 O   0  0  0  0  0  0  0  0  0  0  0  0
   40.5526  -11.0000    0.0000 H   0  0  0  0  0  0  0  0  0  0  0  0
   42.2846  -11.0000    0.0000 H   0  0  0  0  0  0  0  0  0  0  0  0
   41.4186  -13.0000    0.0000 O   0  0  0  0  0  0  0  0  0  0  0  0
   40.5526  -13.5000    0.0000 H   0  0  0  0  0  0  0  0  0  0  0  0
   42.2846  -13.5000    0.0000 H   0  0  0  0  0  0  0  0  0  0  0  0
   41.4186  -16.0000    0.0000 O   0  0  0  0  0  0  0  0  0  0  0  0
   42.2846  -15.5000    0.0000 H   0  0  0  0  0  0  0  0  0  0  0  0
   40.5526  -15.5000    0.0000 H   0  0  0  0  0  0  0  0  0  0  0  0
   41.4186  -18.5000    0.0000 O   0  0  0  0  0  0  0  0  0  0  0  0
   42.2846  -18.0000    0.0000 H   0  0  0  0  0  0  0  0  0  0  0  0
   40.5526  -18.0000    0.0000 H   0  0  0  0  0  0  0  0  0  0  0  0
   41.4186  -21.0000    0.0000 O   0  0  0  0  0  0  0  0  0  0  0  0
   42.2846  -20.5000    0.0000 H   0  0  0  0  0  0  0  0  0  0  0  0
   40.5526  -20.5000    0.0000 H   0  0  0  0  0  0  0  0  0  0  0  0
   41.4186  -23.0000    0.0000 O   0  0  0  0  0  0  0  0  0  0  0  0
   40.5526  -23.5000    0.0000 H   0  0  0  0  0  0  0  0  0  0  0  0
   42.2846  -23.5000    0.0000 H   0  0  0  0  0  0  0  0  0  0  0  0
   41.4186  -26.0000    0.0000 O   0  0  0  0  0  0  0  0  0  0  0  0
   42.2846  -25.5000    0.0000 H   0  0  0  0  0  0  0  0  0  0  0  0
   40.5526  -25.5000    0.0000 H   0  0  0  0  0  0  0  0  0  0  0  0
    7.8301  -28.0000    0.0000 O   0  0  0  0  0  0  0  0  0  0  0  0
    6.9641  -28.5000    0.0000 H   0  0  0  0  0  0  0  0  0  0  0  0
    8.6962  -28.5000    0.0000 H   0  0  0  0  0  0  0  0  0  0  0  0
   26.4904  -11.0000    0.0000 O   0  0  0  0  0  0  0  0  0  0  0  0
   27.3564  -10.5000    0.0000 H   0  0  0  0  0  0  0  0  0  0  0  0
   25.6244  -10.5000    0.0000 H   0  0  0  0  0  0  0  0  0  0  0  0
   26.4904  -13.0000    0.0000 O   0  0  0  0  0  0  0  0  0  0  0  0
   25.6244  -13.5000    0.0000 H   0  0  0  0  0  0  0  0  0  0  0  0
   27.3564  -13.5000    0.0000 H   0  0  0  0  0  0  0  0  0  0  0  0
   26.4904  -15.5000    0.0000 O   0  0  0  0  0  0  0  0  0  0  0  0
   25.6244  -16.0000    0.0000 H   0  0  0  0  0  0  0  0  0  0  0  0
   27.3564  -16.0000    0.0000 H   0  0  0  0  0  0  0  0  0  0  0  0
    7.8301  -18.0000    0.0000 O   0  0  0  0  0  0  0  0  0  0  0  0
    6.9641  -18.5000    0.0000 H   0  0  0  0  0  0  0  0  0  0  0  0
    8.6962  -18.5000    0.0000 H   0  0  0  0  0  0  0  0  0  0  0  0
   33.9545  -28.5000    0.0000 O   0  0  0  0  0  0  0  0  0  0  0  0
   34.8205  -28.0000    0.0000 H   0  0  0  0  0  0  0  0  0  0  0  0
   33.0885  -28.0000    0.0000 H   0  0  0  0  0  0  0  0  0  0  0  0
   33.9545  -21.0000    0.0000 O   0  0  0  0  0  0  0  0  0  0  0  0
   34.8205  -20.5000    0.0000 H   0  0  0  0  0  0  0  0  0  0  0  0
   33.0885  -20.5000    0.0000 H   0  0  0  0  0  0  0  0  0  0  0  0
   33.9545  -16.0000    0.0000 O   0  0  0  0  0  0  0  0  0  0  0  0
   34.8205  -15.5000    0.0000 H   0  0  0  0  0  0  0  0  0  0  0  0
   33.0885  -15.5000    0.0000 H   0  0  0  0  0  0  0  0  0  0  0  0
   11.5622  -18.0000    0.0000 O   0  0  0  0  0  0  0  0  0  0  0  0
   10.6962  -18.5000    0.0000 H   0  0  0  0  0  0  0  0  0  0  0  0
   12.4282  -18.5000    0.0000 H   0  0  0  0  0  0  0  0  0  0  0  0
   29.2224   -1.0000    0.0000 O   0  0  0  0  0  0  0  0  0  0  0  0
   30.0885   -0.5000    0.0000 H   0  0  0  0  0  0  0  0  0  0  0  0
   28.3564   -0.5000    0.0000 H   0  0  0  0  0  0  0  0  0  0  0  0
    5.0981  -30.0000    0.0000 O   0  0  0  0  0  0  0  0  0  0  0  0
    5.9641  -29.5000    0.0000 H   0  0  0  0  0  0  0  0  0  0  0  0
    4.2321  -29.5000    0.0000 H   0  0  0  0  0  0  0  0  0  0  0  0
    1.3660  -20.0000    0.0000 O   0  0  0  0  0  0  0  0  0  0  0  0
    2.2321  -19.5000    0.0000 H   0  0  0  0  0  0  0  0  0  0  0  0
    0.5000  -19.5000    0.0000 H   0  0  0  0  0  0  0  0  0  0  0  0
   30.2224   -3.5000    0.0000 O   0  0  0  0  0  0  0  0  0  0  0  0
   31.0885   -3.0000    0.0000 H   0  0  0  0  0  0  0  0  0  0  0  0
   29.3564   -3.0000    0.0000 H   0  0  0  0  0  0  0  0  0  0  0  0
   30.2224   -5.5000    0.0000 O   0  0  0  0  0  0  0  0  0  0  0  0
   29.3564   -6.0000    0.0000 H   0  0  0  0  0  0  0  0  0  0  0  0
   31.0885   -6.0000    0.0000 H   0  0  0  0  0  0  0  0  0  0  0  0
   30.2224   -8.5000    0.0000 O   0  0  0  0  0  0  0  0  0  0  0  0
   31.0885   -8.0000    0.0000 H   0  0  0  0  0  0  0  0  0  0  0  0
   29.3564   -8.0000    0.0000 H   0  0  0  0  0  0  0  0  0  0  0  0
   30.2224  -11.0000    0.0000 O   0  0  0  0  0  0  0  0  0  0  0  0
   31.0885  -10.5000    0.0000 H   0  0  0  0  0  0  0  0  0  0  0  0
   29.3564  -10.5000    0.0000 H   0  0  0  0  0  0  0  0  0  0  0  0
   30.2224  -13.5000    0.0000 O   0  0  0  0  0  0  0  0  0  0  0  0
   31.0885  -13.0000    0.0000 H   0  0  0  0  0  0  0  0  0  0  0  0
   29.3564  -13.0000    0.0000 H   0  0  0  0  0  0  0  0  0  0  0  0
   33.9545  -18.0000    0.0000 O   0  0  0  0  0  0  0  0  0  0  0  0
   33.0885  -18.5000    0.0000 H   0  0  0  0  0  0  0  0  0  0  0  0
   34.8205  -18.5000    0.0000 H   0  0  0  0  0  0  0  0  0  0  0  0
    5.0981  -17.0000    0.0000 O   0  0  0  0  0  0  0  0  0  0  0  0
    4.2321  -17.5000    0.0000 H   0  0  0  0  0  0  0  0  0  0  0  0
    5.9641  -17.5000    0.0000 H   0  0  0  0  0  0  0  0  0  0  0  0
   40.4186   -1.0000    0.0000 O   0  0  0  0  0  0  0  0  0  0  0  0
   41.2846   -0.5000    0.0000 H   0  0  0  0  0  0  0  0  0  0  0  0
   39.5526   -0.5000    0.0000 H   0  0  0  0  0  0  0  0  0  0  0  0
    5.0981  -19.5000    0.0000 O   0  0  0  0  0  0  0  0  0  0  0  0
    4.2321  -20.0000    0.0000 H   0  0  0  0  0  0  0  0  0  0  0  0
    5.9641  -20.0000    0.0000 H   0  0  0  0  0  0  0  0  0  0  0  0
   15.2942  -23.5000    0.0000 O   0  0  0  0  0  0  0  0  0  0  0  0
   16.1603  -23.0000    0.0000 H   0  0  0  0  0  0  0  0  0  0  0  0
   14.4282  -23.0000    0.0000 H   0  0  0  0  0  0  0  0  0  0  0  0
   19.0263  -23.5000    0.0000 O   0  0  0  0  0  0  0  0  0  0  0  0
   19.8923  -23.0000    0.0000 H   0  0  0  0  0  0  0  0  0  0  0  0
   18.1603  -23.0000    0.0000 H   0  0  0  0  0  0  0  0  0  0  0  0
   22.7583  -23.5000    0.0000 O   0  0  0  0  0  0  0  0  0  0  0  0
   23.6244  -23.0000    0.0000 H   0  0  0  0  0  0  0  0  0  0  0  0
   21.8923  -23.0000    0.0000 H   0  0  0  0  0  0  0  0  0  0  0  0
   26.4904  -23.0000    0.0000 O   0  0  0  0  0  0  0  0  0  0  0  0
   25.6244  -23.5000    0.0000 H   0  0  0  0  0  0  0  0  0  0  0  0
   27.3564  -23.5000    0.0000 H   0  0  0  0  0  0  0  0  0  0  0  0
   30.2224  -23.0000    0.0000 O   0  0  0  0  0  0  0  0  0  0  0  0
   29.3564  -23.5000    0.0000 H   0  0  0  0  0  0  0  0  0  0  0  0
   31.0885  -23.5000    0.0000 H   0  0  0  0  0  0  0  0  0  0  0  0
   11.5622  -23.0000    0.0000 O   0  0  0  0  0  0  0  0  0  0  0  0
   10.6962  -23.5000    0.0000 H   0  0  0  0  0  0  0  0  0  0  0  0
   12.4282  -23.5000    0.0000 H   0  0  0  0  0  0  0  0  0  0  0  0
    4.0981   -3.0000    0.0000 O   0  0  0  0  0  0  0  0  0  0  0  0
    3.2321   -3.5000    0.0000 H   0  0  0  0  0  0  0  0  0  0  0  0
    4.9641   -3.5000    0.0000 H   0  0  0  0  0  0  0  0  0  0  0  0
    6.8301   -1.0000    0.0000 O   0  0  0  0  0  0  0  0  0  0  0  0
    7.6962   -0.5000    0.0000 H   0  0  0  0  0  0  0  0  0  0  0  0
    5.9641   -0.5000    0.0000 H   0  0  0  0  0  0  0  0  0  0  0  0
    1.3660   -5.0000    0.0000 O   0  0  0  0  0  0  0  0  0  0  0  0
    2.2321   -4.5000    0.0000 H   0  0  0  0  0  0  0  0  0  0  0  0
    0.5000   -4.5000    0.0000 H   0  0  0  0  0  0  0  0  0  0  0  0
    7.8301   -3.0000    0.0000 O   0  0  0  0  0  0  0  0  0  0  0  0
    6.9641   -3.5000    0.0000 H   0  0  0  0  0  0  0  0  0  0  0  0
    8.6962   -3.5000    0.0000 H   0  0  0  0  0  0  0  0  0  0  0  0
    4.0981   -5.5000    0.0000 O   0  0  0  0  0  0  0  0  0  0  0  0
    3.2321   -6.0000    0.0000 H   0  0  0  0  0  0  0  0  0  0  0  0
    4.9641   -6.0000    0.0000 H   0  0  0  0  0  0  0  0  0  0  0  0
    7.8301   -6.0000    0.0000 O   0  0  0  0  0  0  0  0  0  0  0  0
    8.6962   -5.5000    0.0000 H   0  0  0  0  0  0  0  0  0  0  0  0
    6.9641   -5.5000    0.0000 H   0  0  0  0  0  0  0  0  0  0  0  0
   10.5622   -0.5000    0.0000 O   0  0  0  0  0  0  0  0  0  0  0  0
    9.6962   -1.0000    0.0000 H   0  0  0  0  0  0  0  0  0  0  0  0
   11.4282   -1.0000    0.0000 H   0  0  0  0  0  0  0  0  0  0  0  0
    1.3660   -7.5000    0.0000 O   0  0  0  0  0  0  0  0  0  0  0  0
    2.2321   -7.0000    0.0000 H   0  0  0  0  0  0  0  0  0  0  0  0
    0.5000   -7.0000    0.0000 H   0  0  0  0  0  0  0  0  0  0  0  0
   11.5622   -3.5000    0.0000 O   0  0  0  0  0  0  0  0  0  0  0  0
   12.4282   -3.0000    0.0000 H   0  0  0  0  0  0  0  0  0  0  0  0
   10.6962   -3.0000    0.0000 H   0  0  0  0  0  0  0  0  0  0  0  0
   11.5622   -5.5000    0.0000 O   0  0  0  0  0  0  0  0  0  0  0  0
   10.6962   -6.0000    0.0000 H   0  0  0  0  0  0  0  0  0  0  0  0
   12.4282   -6.0000    0.0000 H   0  0  0  0  0  0  0  0  0  0  0  0
    7.8301   -8.0000    0.0000 O   0  0  0  0  0  0  0  0  0  0  0  0
    6.9641   -8.5000    0.0000 H   0  0  0  0  0  0  0  0  0  0  0  0
    8.6962   -8.5000    0.0000 H   0  0  0  0  0  0  0  0  0  0  0  0
   11.5622   -8.0000    0.0000 O   0  0  0  0  0  0  0  0  0  0  0  0
   10.6962   -8.5000    0.0000 H   0  0  0  0  0  0  0  0  0  0  0  0
   12.4282   -8.5000    0.0000 H   0  0  0  0  0  0  0  0  0  0  0  0
   26.4904   -8.5000    0.0000 O   0  0  0  0  0  0  0  0  0  0  0  0
   27.3564   -8.0000    0.0000 H   0  0  0  0  0  0  0  0  0  0  0  0
   25.6244   -8.0000    0.0000 H   0  0  0  0  0  0  0  0  0  0  0  0
   22.7583  -15.5000    0.0000 O   0  0  0  0  0  0  0  0  0  0  0  0
   21.8923  -16.0000    0.0000 H   0  0  0  0  0  0  0  0  0  0  0  0
   23.6244  -16.0000    0.0000 H   0  0  0  0  0  0  0  0  0  0  0  0
   25.4904   -0.5000    0.0000 O   0  0  0  0  0  0  0  0  0  0  0  0
   24.6244   -1.0000    0.0000 H   0  0  0  0  0  0  0  0  0  0  0  0
   26.3564   -1.0000    0.0000 H   0  0  0  0  0  0  0  0  0  0  0  0
    1.3660  -17.5000    0.0000 O   0  0  0  0  0  0  0  0  0  0  0  0
    2.2321  -17.0000    0.0000 H   0  0  0  0  0  0  0  0  0  0  0  0
    0.5000  -17.0000    0.0000 H   0  0  0  0  0  0  0  0  0  0  0  0
   11.5622  -13.5000    0.0000 O   0  0  0  0  0  0  0  0  0  0  0  0
   12.4282  -13.0000    0.0000 H   0  0  0  0  0  0  0  0  0  0  0  0
   10.6962  -13.0000    0.0000 H   0  0  0  0  0  0  0  0  0  0  0  0
   15.2942  -13.0000    0.0000 O   0  0  0  0  0  0  0  0  0  0  0  0
   14.4282  -13.5000    0.0000 H   0  0  0  0  0  0  0  0  0  0  0  0
   16.1603  -13.5000    0.0000 H   0  0  0  0  0  0  0  0  0  0  0  0
    7.8301  -13.5000    0.0000 O   0  0  0  0  0  0  0  0  0  0  0  0
    8.6962  -13.0000    0.0000 H   0  0  0  0  0  0  0  0  0  0  0  0
    6.9641  -13.0000    0.0000 H   0  0  0  0  0  0  0  0  0  0  0  0
   14.2942   -0.5000    0.0000 O   0  0  0  0  0  0  0  0  0  0  0  0
   13.4282   -1.0000    0.0000 H   0  0  0  0  0  0  0  0  0  0  0  0
   15.1603   -1.0000    0.0000 H   0  0  0  0  0  0  0  0  0  0  0  0
    1.3660   -9.5000    0.0000 O   0  0  0  0  0  0  0  0  0  0  0  0
    0.5000  -10.0000    0.0000 H   0  0  0  0  0  0  0  0  0  0  0  0
    2.2321  -10.0000    0.0000 H   0  0  0  0  0  0  0  0  0  0  0  0
   19.0263  -13.5000    0.0000 O   0  0  0  0  0  0  0  0  0  0  0  0
   19.8923  -13.0000    0.0000 H   0  0  0  0  0  0  0  0  0  0  0  0
   18.1603  -13.0000    0.0000 H   0  0  0  0  0  0  0  0  0  0  0  0
   21.7583   -1.0000    0.0000 O   0  0  0  0  0  0  0  0  0  0  0  0
   22.6244   -0.5000    0.0000 H   0  0  0  0  0  0  0  0  0  0  0  0
   20.8923   -0.5000    0.0000 H   0  0  0  0  0  0  0  0  0  0  0  0
   19.0263  -10.5000    0.0000 O   0  0  0  0  0  0  0  0  0  0  0  0
   18.1603  -11.0000    0.0000 H   0  0  0  0  0  0  0  0  0  0  0  0
   19.8923  -11.0000    0.0000 H   0  0  0  0  0  0  0  0  0  0  0  0
   15.2942  -18.0000    0.0000 O   0  0  0  0  0  0  0  0  0  0  0  0
   14.4282  -18.5000    0.0000 H   0  0  0  0  0  0  0  0  0  0  0  0
   16.1603  -18.5000    0.0000 H   0  0  0  0  0  0  0  0  0  0  0  0
   19.0263  -18.5000    0.0000 O   0  0  0  0  0  0  0  0  0  0  0  0
   19.8923  -18.0000    0.0000 H   0  0  0  0  0  0  0  0  0  0  0  0
   18.1603  -18.0000    0.0000 H   0  0  0  0  0  0  0  0  0  0  0  0
   22.7583  -18.0000    0.0000 O   0  0  0  0  0  0  0  0  0  0  0  0
   21.8923  -18.5000    0.0000 H   0  0  0  0  0  0  0  0  0  0  0  0
   23.6244  -18.5000    0.0000 H   0  0  0  0  0  0  0  0  0  0  0  0
   26.4904  -18.5000    0.0000 O   0  0  0  0  0  0  0  0  0  0  0  0
   27.3564  -18.0000    0.0000 H   0  0  0  0  0  0  0  0  0  0  0  0
   25.6244  -18.0000    0.0000 H   0  0  0  0  0  0  0  0  0  0  0  0
   15.2942   -3.5000    0.0000 O   0  0  0  0  0  0  0  0  0  0  0  0
   16.1603   -3.0000    0.0000 H   0  0  0  0  0  0  0  0  0  0  0  0
   14.4282   -3.0000    0.0000 H   0  0  0  0  0  0  0  0  0  0  0  0
   15.2942   -5.5000    0.0000 O   0  0  0  0  0  0  0  0  0  0  0  0
   14.4282   -6.0000    0.0000 H   0  0  0  0  0  0  0  0  0  0  0  0
   16.1603   -6.0000    0.0000 H   0  0  0  0  0  0  0  0  0  0  0  0
   15.2942   -8.0000    0.0000 O   0  0  0  0  0  0  0  0  0  0  0  0
   14.4282   -8.5000    0.0000 H   0  0  0  0  0  0  0  0  0  0  0  0
   16.1603   -8.5000    0.0000 H   0  0  0  0  0  0  0  0  0  0  0  0
    7.8301  -11.0000    0.0000 O   0  0  0  0  0  0  0  0  0  0  0  0
    8.6962  -10.5000    0.0000 H   0  0  0  0  0  0  0  0  0  0  0  0
    6.9641  -10.5000    0.0000 H   0  0  0  0  0  0  0  0  0  0  0  0
   11.5622  -10.5000    0.0000 O   0  0  0  0  0  0  0  0  0  0  0  0
   10.6962  -11.0000    0.0000 H   0  0  0  0  0  0  0  0  0  0  0  0
   12.4282  -11.0000    0.0000 H   0  0  0  0  0  0  0  0  0  0  0  0
   15.2942  -11.0000    0.0000 O   0  0  0  0  0  0  0  0  0  0  0  0
   16.1603  -10.5000    0.0000 H   0  0  0  0  0  0  0  0  0  0  0  0
   14.4282  -10.5000    0.0000 H   0  0  0  0  0  0  0  0  0  0  0  0
   18.0263   -1.0000    0.0000 O   0  0  0  0  0  0  0  0  0  0  0  0
   18.8923   -0.5000    0.0000 H   0  0  0  0  0  0  0  0  0  0  0  0
   17.1603   -0.5000    0.0000 H   0  0  0  0  0  0  0  0  0  0  0  0
    1.3660  -12.5000    0.0000 O   0  0  0  0  0  0  0  0  0  0  0  0
    2.2321  -12.0000    0.0000 H   0  0  0  0  0  0  0  0  0  0  0  0
    0.5000  -12.0000    0.0000 H   0  0  0  0  0  0  0  0  0  0  0  0
   19.0263   -3.5000    0.0000 O   0  0  0  0  0  0  0  0  0  0  0  0
   19.8923   -3.0000    0.0000 H   0  0  0  0  0  0  0  0  0  0  0  0
   18.1603   -3.0000    0.0000 H   0  0  0  0  0  0  0  0  0  0  0  0
   19.0263   -5.5000    0.0000 O   0  0  0  0  0  0  0  0  0  0  0  0
   18.1603   -6.0000    0.0000 H   0  0  0  0  0  0  0  0  0  0  0  0
   19.8923   -6.0000    0.0000 H   0  0  0  0  0  0  0  0  0  0  0  0
   19.0263   -8.5000    0.0000 O   0  0  0  0  0  0  0  0  0  0  0  0
   19.8923   -8.0000    0.0000 H   0  0  0  0  0  0  0  0  0  0  0  0
   18.1603   -8.0000    0.0000 H   0  0  0  0  0  0  0  0  0  0  0  0
   22.7583  -28.0000    0.0000 O   0  0  0  0  0  0  0  0  0  0  0  0
   23.6244  -28.5000    0.0000 H   0  0  0  0  0  0  0  0  0  0  0  0
   21.8923  -28.5000    0.0000 H   0  0  0  0  0  0  0  0  0  0  0  0
   26.4904  -28.0000    0.0000 O   0  0  0  0  0  0  0  0  0  0  0  0
   27.3564  -28.5000    0.0000 H   0  0  0  0  0  0  0  0  0  0  0  0
   25.6244  -28.5000    0.0000 H   0  0  0  0  0  0  0  0  0  0  0  0
   15.2942  -20.5000    0.0000 O   0  0  0  0  0  0  0  0  0  0  0  0
   16.1603  -21.0000    0.0000 H   0  0  0  0  0  0  0  0  0  0  0  0
   14.4282  -21.0000    0.0000 H   0  0  0  0  0  0  0  0  0  0  0  0
   19.0263  -21.0000    0.0000 O   0  0  0  0  0  0  0  0  0  0  0  0
   18.1603  -20.5000    0.0000 H   0  0  0  0  0  0  0  0  0  0  0  0
   19.8923  -20.5000    0.0000 H   0  0  0  0  0  0  0  0  0  0  0  0
   22.7583  -20.5000    0.0000 O   0  0  0  0  0  0  0  0  0  0  0  0
   23.6244  -21.0000    0.0000 H   0  0  0  0  0  0  0  0  0  0  0  0
   21.8923  -21.0000    0.0000 H   0  0  0  0  0  0  0  0  0  0  0  0
   26.4904  -21.0000    0.0000 O   0  0  0  0  0  0  0  0  0  0  0  0
   25.6244  -20.5000    0.0000 H   0  0  0  0  0  0  0  0  0  0  0  0
   27.3564  -20.5000    0.0000 H   0  0  0  0  0  0  0  0  0  0  0  0
   30.2224  -20.5000    0.0000 O   0  0  0  0  0  0  0  0  0  0  0  0
   31.0885  -21.0000    0.0000 H   0  0  0  0  0  0  0  0  0  0  0  0
   29.3564  -21.0000    0.0000 H   0  0  0  0  0  0  0  0  0  0  0  0
   32.9545   -0.5000    0.0000 O   0  0  0  0  0  0  0  0  0  0  0  0
   33.8205   -1.0000    0.0000 H   0  0  0  0  0  0  0  0  0  0  0  0
   32.0885   -1.0000    0.0000 H   0  0  0  0  0  0  0  0  0  0  0  0
    1.3660  -22.0000    0.0000 O   0  0  0  0  0  0  0  0  0  0  0  0
    2.2321  -22.5000    0.0000 H   0  0  0  0  0  0  0  0  0  0  0  0
    0.5000  -22.5000    0.0000 H   0  0  0  0  0  0  0  0  0  0  0  0
   33.9545   -3.5000    0.0000 O   0  0  0  0  0  0  0  0  0  0  0  0
   33.0885   -3.0000    0.0000 H   0  0  0  0  0  0  0  0  0  0  0  0
   34.8205   -3.0000    0.0000 H   0  0  0  0  0  0  0  0  0  0  0  0
   33.9545   -6.0000    0.0000 O   0  0  0  0  0  0  0  0  0  0  0  0
   33.0885   -5.5000    0.0000 H   0  0  0  0  0  0  0  0  0  0  0  0
   34.8205   -5.5000    0.0000 H   0  0  0  0  0  0  0  0  0  0  0  0
   45.1506   -8.0000    0.0000 O   0  0  0  0  0  0  0  0  0  0  0  0
   46.0167   -8.5000    0.0000 H   0  0  0  0  0  0  0  0  0  0  0  0
   44.2846   -8.5000    0.0000 H   0  0  0  0  0  0  0  0  0  0  0  0
   45.1506  -10.5000    0.0000 O   0  0  0  0  0  0  0  0  0  0  0  0
   46.0167  -11.0000    0.0000 H   0  0  0  0  0  0  0  0  0  0  0  0
   44.2846  -11.0000    0.0000 H   0  0  0  0  0  0  0  0  0  0  0  0
   45.1506  -13.0000    0.0000 O   0  0  0  0  0  0  0  0  0  0  0  0
   46.0167  -13.5000    0.0000 H   0  0  0  0  0  0  0  0  0  0  0  0
   44.2846  -13.5000    0.0000 H   0  0  0  0  0  0  0  0  0  0  0  0
   45.1506  -16.0000    0.0000 O   0  0  0  0  0  0  0  0  0  0  0  0
   44.2846  -15.5000    0.0000 H   0  0  0  0  0  0  0  0  0  0  0  0
   46.0167  -15.5000    0.0000 H   0  0  0  0  0  0  0  0  0  0  0  0
   33.9545   -8.0000    0.0000 O   0  0  0  0  0  0  0  0  0  0  0  0
   34.8205   -8.5000    0.0000 H   0  0  0  0  0  0  0  0  0  0  0  0
   33.0885   -8.5000    0.0000 H   0  0  0  0  0  0  0  0  0  0  0  0
   33.9545  -11.0000    0.0000 O   0  0  0  0  0  0  0  0  0  0  0  0
   33.0885  -10.5000    0.0000 H   0  0  0  0  0  0  0  0  0  0  0  0
   34.8205  -10.5000    0.0000 H   0  0  0  0  0  0  0  0  0  0  0  0
   33.9545  -13.0000    0.0000 O   0  0  0  0  0  0  0  0  0  0  0  0
   34.8205  -13.5000    0.0000 H   0  0  0  0  0  0  0  0  0  0  0  0
   33.0885  -13.5000    0.0000 H   0  0  0  0  0  0  0  0  0  0  0  0
    7.8301  -23.5000    0.0000 O   0  0  0  0  0  0  0  0  0  0  0  0
    6.9641  -23.0000    0.0000 H   0  0  0  0  0  0  0  0  0  0  0  0
    8.6962  -23.0000    0.0000 H   0  0  0  0  0  0  0  0  0  0  0  0
  1  3  1  0  0  0  0
  2  1  1  0  0  0  0
  4  6  1  0  0  0  0
  4  5  1  0  0  0  0
  7  8  1  0  0  0  0
  9  7  1  0  0  0  0
 10 11  1  0  0  0  0
 10 12  1  0  0  0  0
 13 15  1  0  0  0  0
 13 14  1  0  0  0  0
 17 16  1  0  0  0  0
 18 16  1  0  0  0  0
 19 21  1  0  0  0  0
 20 19  1  0  0  0  0
 22 24  1  0  0  0  0
 23 22  1  0  0  0  0
 25 27  1  0  0  0  0
 26 25  1  0  0  0  0
 28 30  1  0  0  0  0
 29 28  1  0  0  0  0
 31 32  1  0  0  0  0
 33 31  1  0  0  0  0
 34 35  1  0  0  0  0
 36 34  1  0  0  0  0
 37 39  1  0  0  0  0
 38 37  1  0  0  0  0
 40 42  1  0  0  0  0
 41 40  1  0  0  0  0
 43 44  1  0  0  0  0
 45 43  1  0  0  0  0
 46 48  1  0  0  0  0
 47 46  1  0  0  0  0
 49 51  1  0  0  0  0
 49 50  1  0  0  0  0
 53 52  1  0  0  0  0
 54 52  1  0  0  0  0
 55 56  1  0  0  0  0
 57 55  1  0  0  0  0
 58 60  1  0  0  0  0
 59 58  1  0  0  0  0
 61 63  1  0  0  0  0
 62 61  1  0  0  0  0
 64 66  1  0  0  0  0
 64 65  1  0  0  0  0
 68 67  1  0  0  0  0
 69 67  1  0  0  0  0
 70 71  1  0  0  0  0
 70 72  1  0  0  0  0
 73 75  1  0  0  0  0
 74 73  1  0  0  0  0
 76 78  1  0  0  0  0
 77 76  1  0  0  0  0
 79 80  1  0  0  0  0
 81 79  1  0  0  0  0
 82 83  1  0  0  0  0
 82 84  1  0  0  0  0
 86 85  1  0  0  0  0
 87 85  1  0  0  0  0
 88 89  1  0  0  0  0
 90 88  1  0  0  0  0
 91 93  1  0  0  0  0
 92 91  1  0  0  0  0
 94 96  1  0  0  0  0
 94 95  1  0  0  0  0
 97 98  1  0  0  0  0
 99 97  1  0  0  0  0
101100  1  0  0  0  0
102100  1  0  0  0  0
103105  1  0  0  0  0
104103  1  0  0  0  0
106107  1  0  0  0  0
108106  1  0  0  0  0
109110  1  0  0  0  0
111109  1  0  0  0  0
112114  1  0  0  0  0
113112  1  0  0  0  0
116115  1  0  0  0  0
117115  1  0  0  0  0
118120  1  0  0  0  0
119118  1  0  0  0  0
121122  1  0  0  0  0
121123  1  0  0  0  0
124126  1  0  0  0  0
125124  1  0  0  0  0
127129  1  0  0  0  0
127128  1  0  0  0  0
130131  1  0  0  0  0
130132  1  0  0  0  0
133134  1  0  0  0  0
133135  1  0  0  0  0
136138  1  0  0  0  0
137136  1  0  0  0  0
139140  1  0  0  0  0
141139  1  0  0  0  0
142144  1  0  0  0  0
142143  1  0  0  0  0
146145  1  0  0  0  0
147145  1  0  0  0  0
148150  1  0  0  0  0
148149  1  0  0  0  0
151153  1  0  0  0  0
151152  1  0  0  0  0
154156  1  0  0  0  0
155154  1  0  0  0  0
157159  1  0  0  0  0
157158  1  0  0  0  0
160162  1  0  0  0  0
161160  1  0  0  0  0
163165  1  0  0  0  0
163164  1  0  0  0  0
166168  1  0  0  0  0
167166  1  0  0  0  0
169170  1  0  0  0  0
171169  1  0  0  0  0
173172  1  0  0  0  0
174172  1  0  0  0  0
175177  1  0  0  0  0
176175  1  0  0  0  0
178180  1  0  0  0  0
179178  1  0  0  0  0
181182  1  0  0  0  0
183181  1  0  0  0  0
184185  1  0  0  0  0
186184  1  0  0  0  0
187188  1  0  0  0  0
189187  1  0  0  0  0
190192  1  0  0  0  0
190191  1  0  0  0  0
193195  1  0  0  0  0
193194  1  0  0  0  0
196198  1  0  0  0  0
197196  1  0  0  0  0
200199  1  0  0  0  0
201199  1  0  0  0  0
202204  1  0  0  0  0
203202  1  0  0  0  0
205206  1  0  0  0  0
207205  1  0  0  0  0
208210  1  0  0  0  0
209208  1  0  0  0  0
212211  1  0  0  0  0
213211  1  0  0  0  0
214215  1  0  0  0  0
216214  1  0  0  0  0
218217  1  0  0  0  0
219217  1  0  0  0  0
220222  1  0  0  0  0
221220  1  0  0  0  0
223224  1  0  0  0  0
223225  1  0  0  0  0
226228  1  0  0  0  0
227226  1  0  0  0  0
229230  1  0  0  0  0
231229  1  0  0  0  0
232234  1  0  0  0  0
233232  1  0  0  0  0
235236  1  0  0  0  0
235237  1  0  0  0  0
238240  1  0  0  0  0
239238  1  0  0  0  0
241243  1  0  0  0  0
242241  1  0  0  0  0
244245  1  0  0  0  0
246244  1  0  0  0  0
247248  1  0  0  0  0
247249  1  0  0  0  0
250252  1  0  0  0  0
251250  1  0  0  0  0
253254  1  0  0  0  0
253255  1  0  0  0  0
256257  1  0  0  0  0
258256  1  0  0  0  0
259260  1  0  0  0  0
261259  1  0  0  0  0
262264  1  0  0  0  0
263262  1  0  0  0  0
265266  1  0  0  0  0
267265  1  0  0  0  0
268269  1  0  0  0  0
268270  1  0  0  0  0
271273  1  0  0  0  0
272271  1  0  0  0  0
274275  1  0  0  0  0
274276  1  0  0  0  0
277278  1  0  0  0  0
279277  1  0  0  0  0
281280  1  0  0  0  0
282280  1  0  0  0  0
283284  1  0  0  0  0
285283  1  0  0  0  0
287286  1  0  0  0  0
288286  1  0  0  0  0
289291  1  0  0  0  0
290289  1  0  0  0  0
292294  1  0  0  0  0
292293  1  0  0  0  0
295296  1  0  0  0  0
297295  1  0  0  0  0
298299  1  0  0  0  0
300298  1  0  0  0  0
301303  1  0  0  0  0
302301  1  0  0  0  0
304305  1  0  0  0  0
306304  1  0  0  0  0
307309  1  0  0  0  0
308307  1  0  0  0  0
310312  1  0  0  0  0
311310  1  0  0  0  0
313314  1  0  0  0  0
315313  1  0  0  0  0
316317  1  0  0  0  0
318316  1  0  0  0  0
320319  1  0  0  0  0
321319  1  0  0  0  0
322324  1  0  0  0  0
323322  1  0  0  0  0
325326  1  0  0  0  0
327325  1  0  0  0  0
328329  1  0  0  0  0
330328  1  0  0  0  0
331333  1  0  0  0  0
331332  1  0  0  0  0
334335  1  0  0  0  0
334336  1  0  0  0  0
337338  1  0  0  0  0
339337  1  0  0  0  0
340342  1  0  0  0  0
341340  1  0  0  0  0
343344  1  0  0  0  0
345343  1  0  0  0  0
347346  1  0  0  0  0
348346  1  0  0  0  0
349351  1  0  0  0  0
350349  1  0  0  0  0
352353  1  0  0  0  0
352354  1  0  0  0  0
355356  1  0  0  0  0
357355  1  0  0  0  0
358359  1  0  0  0  0
360358  1  0  0  0  0
361363  1  0  0  0  0
362361  1  0  0  0  0
364365  1  0  0  0  0
366364  1  0  0  0  0
367369  1  0  0  0  0
367368  1  0  0  0  0
370372  1  0  0  0  0
371370  1  0  0  0  0
373374  1  0  0  0  0
375373  1  0  0  0  0
376377  1  0  0  0  0
378376  1  0  0  0  0
379381  1  0  0  0  0
379380  1  0  0  0  0
383382  1  0  0  0  0
384382  1  0  0  0  0
385387  1  0  0  0  0
385386  1  0  0  0  0
388389  1  0  0  0  0
388390  1  0  0  0  0
391393  1  0  0  0  0
392391  1  0  0  0  0
394396  1  0  0  0  0
394395  1  0  0  0  0
397398  1  0  0  0  0
399397  1  0  0  0  0
400401  1  0  0  0  0
400402  1  0  0  0  0
403405  1  0  0  0  0
404403  1  0  0  0  0
406408  1  0  0  0  0
407406  1  0  0  0  0
409411  1  0  0  0  0
410409  1  0  0  0  0
412413  1  0  0  0  0
414412  1  0  0  0  0
415417  1  0  0  0  0
416415  1  0  0  0  0
418419  1  0  0  0  0
418420  1  0  0  0  0
421423  1  0  0  0  0
422421  1  0  0  0  0
424426  1  0  0  0  0
425424  1  0  0  0  0
428427  1  0  0  0  0
429427  1  0  0  0  0
430432  1  0  0  0  0
430431  1  0  0  0  0
433434  1  0  0  0  0
435433  1  0  0  0  0
436438  1  0  0  0  0
437436  1  0  0  0  0
439441  1  0  0  0  0
440439  1  0  0  0  0
442444  1  0  0  0  0
443442  1  0  0  0  0
445446  1  0  0  0  0
447445  1  0  0  0  0
449448  1  0  0  0  0
450448  1  0  0  0  0
451452  1  0  0  0  0
453451  1  0  0  0  0
454456  1  0  0  0  0
455454  1  0  0  0  0
457458  1  0  0  0  0
459457  1  0  0  0  0
M  END
