@<TRIPOS>MOLECULE
HETD
 75 79 0 0 0
SMALL
GASTEIGER

@<TRIPOS>ATOM
      1 P          -6.0326    4.0616    6.9055 P.3     1  UNL1        0.2182
      2 O          -5.8243    2.5879    7.1637 O.2     1  UNL1       -0.5170
      3 O          -5.6409    4.6835    5.5800 O.co2   1  UNL1       -0.4371
      4 O          -7.6385    4.3292    7.0481 O.3     1  UNL1       -0.3246
      5 C          -8.2295    3.7665    8.2053 C.3     1  UNL1        0.0836
      6 C          -9.7376    3.7981    8.0666 C.3     1  UNL1        0.1133
      7 O         -10.2237    2.7255    7.2305 O.3     1  UNL1       -0.3456
      8 C         -10.4347    3.5900    9.3882 C.3     1  UNL1        0.1142
      9 O         -10.3569    4.7152   10.2340 O.3     1  UNL1       -0.3864
     10 C         -11.8354    3.2363    8.9449 C.3     1  UNL1        0.1391
     11 O         -12.4988    4.3875    8.4238 O.3     1  UNL1       -0.3170
     12 C         -11.5165    2.3340    7.7542 C.3     1  UNL1        0.1674
     13 N         -11.4432    0.9299    8.1143 N.ar    1  UNL1       -0.2855
     14 C         -10.3212    0.2270    8.4672 C.ar    1  UNL1        0.1004
     15 N         -10.5874   -1.0444    8.7056 N.ar    1  UNL1       -0.2306
     16 C         -11.9436   -1.1615    8.4943 C.ar    1  UNL1        0.1473
     17 C         -12.8315   -2.2446    8.5935 C.ar    1  UNL1        0.1472
     18 N         -12.3880   -3.5233    8.9733 N.pl3   1  UNL1       -0.3413
     19 N         -14.1503   -2.0309    8.3140 N.ar    1  UNL1       -0.2188
     20 C         -14.5325   -0.7869    7.9527 C.ar    1  UNL1        0.1205
     21 N         -13.7626    0.2957    7.7875 N.ar    1  UNL1       -0.2159
     22 C         -12.4861    0.0514    8.1020 C.ar    1  UNL1        0.1674
     23 O          -5.5339    4.9763    8.1207 O.3     1  UNL1       -0.2703
     24 P          -4.0968    5.1599    8.7964 P.3     1  UNL1        0.2182
     25 O          -3.7605    4.0171    9.7259 O.2     1  UNL1       -0.5170
     26 O          -3.9970    6.5761    9.3458 O.co2   1  UNL1       -0.4371
     27 O          -3.1009    5.0979    7.5170 O.3     1  UNL1       -0.3246
     28 C          -3.0143    6.3067    6.7843 C.3     1  UNL1        0.0836
     29 C          -1.5916    6.8391    6.9256 C.3     1  UNL1        0.1131
     30 O          -0.6535    5.9498    6.2708 O.3     1  UNL1       -0.3476
     31 C          -1.4595    8.1932    6.2413 C.3     1  UNL1        0.1133
     32 O          -0.3702    8.9021    6.8413 O.3     1  UNL1       -0.3864
     33 C          -1.0767    7.7812    4.8378 C.3     1  UNL1        0.1265
     34 O          -0.4012    8.8149    4.1322 O.3     1  UNL1       -0.3849
     35 C          -0.1611    6.6129    5.1125 C.3     1  UNL1        0.1574
     36 N          -0.0134    5.7123    3.9798 N.pl3   1  UNL1       -0.2846
     37 C           1.2598    5.3588    3.5626 C.2     1  UNL1        0.0071
     38 C           1.4879    4.4022    2.6483 C.2     1  UNL1        0.0318
     39 C           2.8507    4.0541    2.1966 C.2     1  UNL1        0.2390
     40 O           3.0456    3.1973    1.3373 O.2     1  UNL1       -0.2707
     41 N           3.8555    4.7723    2.7976 N.am    1  UNL1       -0.3256
     42 C           0.3501    3.6349    2.0416 C.3     1  UNL1       -0.0019
     43 C          -0.9976    4.0602    2.5441 C.2     1  UNL1       -0.0654
     44 C          -1.1092    5.0254    3.4689 C.2     1  UNL1       -0.0049
     45 P         -13.8896    4.7747    9.1606 P.3     1  UNL1        0.2104
     46 O         -14.6578    5.7046    8.2526 O.2     1  UNL1       -0.5173
     47 O         -14.4947    3.4938    9.6870 O.co2   1  UNL1       -0.4374
     48 O         -13.2954    5.6336   10.4108 O.3     1  UNL1       -0.3436
     49 H          -7.8932    2.7254    8.3198 H       1  UNL1        0.0591
     50 H          -7.9298    4.3473    9.0901 H       1  UNL1        0.0591
     51 H          -9.9539    4.7884    7.6396 H       1  UNL1        0.0647
     52 H          -9.9807    2.8118   10.0194 H       1  UNL1        0.0648
     53 H         -10.3773    4.4199   11.1787 H       1  UNL1        0.2100
     54 H         -12.4642    2.8146    9.7429 H       1  UNL1        0.0673
     55 H         -12.3266    2.4516    7.0194 H       1  UNL1        0.0867
     56 H          -9.3170    0.6695    8.5429 H       1  UNL1        0.1030
     57 H         -13.0584   -4.3025    9.0390 H       1  UNL1        0.1438
     58 H         -11.3925   -3.6811    9.1858 H       1  UNL1        0.1438
     59 H         -15.6084   -0.6460    7.7721 H       1  UNL1        0.1048
     60 H          -3.7294    7.0395    7.1863 H       1  UNL1        0.0591
     61 H          -3.2547    6.1311    5.7253 H       1  UNL1        0.0591
     62 H          -1.3769    6.9188    8.0015 H       1  UNL1        0.0647
     63 H          -2.3515    8.8343    6.2988 H       1  UNL1        0.0647
     64 H          -0.4470    8.8521    7.8271 H       1  UNL1        0.2100
     65 H          -1.9400    7.5463    4.1978 H       1  UNL1        0.0663
     66 H           0.0089    9.4424    4.7789 H       1  UNL1        0.2101
     67 H           0.8587    6.9859    5.2881 H       1  UNL1        0.0840
     68 H           2.1214    5.8848    3.9995 H       1  UNL1        0.0788
     69 H           4.8378    4.5957    2.5433 H       1  UNL1        0.1452
     70 H           3.6266    5.4874    3.5027 H       1  UNL1        0.1452
     71 H           0.4871    2.5685    2.2738 H       1  UNL1        0.0358
     72 H           0.3681    3.8336    0.9598 H       1  UNL1        0.0358
     73 H          -1.9033    3.5759    2.1504 H       1  UNL1        0.0588
     74 H          -2.1119    5.2850    3.8396 H       1  UNL1        0.0781
     75 H         -13.5826    5.2185   11.2624 H       1  UNL1        0.2176
@<TRIPOS>UNITY_ATOM_ATTR
3 1
charge -1
26 1
charge -1
47 1
charge -1
@<TRIPOS>BOND
     1     1     4    1
     2     1     2    2
     3     1    23    1
     4     1     3    1
     5     4     5    1
     6     6     5    1
     7     6     8    1
     8     7    12    1
     9     7     6    1
    10     8    10    1
    11     8     9    1
    12    10    12    1
    13    11    10    1
    14    11    45    1
    15    12    13    1
    16    13    22   ar
    17    13    14   ar
    18    14    15   ar
    19    16    15   ar
    20    16    17   ar
    21    17    18    1
    22    19    17   ar
    23    20    19   ar
    24    21    20   ar
    25    21    22   ar
    26    22    16   ar
    27    23    24    1
    28    24    25    2
    29    24    26    1
    30    27    24    1
    31    28    29    1
    32    28    27    1
    33    29    31    1
    34    30    29    1
    35    31    33    1
    36    31    32    1
    37    33    35    1
    38    34    33    1
    39    35    30    1
    40    35    36    1
    41    37    36    1
    42    38    37    2
    43    39    41   am
    44    39    38    1
    45    40    39    2
    46    42    43    1
    47    42    38    1
    48    43    44    2
    49    44    36    1
    50    45    47    1
    51    45    48    1
    52    46    45    2
    53     5    49    1
    54     5    50    1
    55     6    51    1
    56     8    52    1
    57     9    53    1
    58    10    54    1
    59    12    55    1
    60    14    56    1
    61    18    57    1
    62    18    58    1
    63    20    59    1
    64    28    60    1
    65    28    61    1
    66    29    62    1
    67    31    63    1
    68    32    64    1
    69    33    65    1
    70    34    66    1
    71    35    67    1
    72    37    68    1
    73    41    69    1
    74    41    70    1
    75    42    71    1
    76    42    72    1
    77    43    73    1
    78    44    74    1
    79    48    75    1
