@<TRIPOS>MOLECULE
FOL
 51 53 0 0 0
SMALL
GASTEIGER

@<TRIPOS>ATOM
      1 N          -1.0690    0.5790    7.8880 N.ar    0  UNK0       -0.3109
      2 C          -0.1460   -0.1590    8.5580 C.ar    0  UNK0        0.1953
      3 N          -0.2090   -0.1990    9.9220 N.pl3   0  UNK0       -0.3289
      4 N           0.8020   -0.8410    7.9520 N.ar    0  UNK0       -0.1756
      5 C           0.9220   -0.8470    6.6180 C.ar    0  UNK0        0.3021
      6 O           1.8070   -1.4850    6.0730 O.2     0  UNK0       -0.2633
      7 C          -0.0430   -0.0610    5.8220 C.ar    0  UNK0        0.1725
      8 N           0.0110   -0.0180    4.4980 N.ar    0  UNK0       -0.2400
      9 C          -0.8740    0.6970    3.8340 C.ar    0  UNK0        0.0773
     10 C          -1.8600    1.4030    4.5120 C.ar    0  UNK0        0.0528
     11 N          -1.9240    1.3680    5.8310 N.ar    0  UNK0       -0.2339
     12 C          -1.0400    0.6520    6.5110 C.ar    0  UNK0        0.1644
     13 C          -0.8170    0.7500    2.3290 C.3     0  UNK0        0.0530
     14 N           0.3000   -0.0680    1.8530 N.pl3   0  UNK0       -0.3382
     15 C           1.0600   -0.3850   -2.2250 C.ar    0  UNK0        0.0368
     16 C           1.8700   -1.0590   -1.3070 C.ar    0  UNK0       -0.0479
     17 C           1.6160   -0.9530    0.0400 C.ar    0  UNK0       -0.0401
     18 C           0.5540   -0.1740    0.4900 C.ar    0  UNK0        0.0275
     19 C          -0.2570    0.4940   -0.4210 C.ar    0  UNK0       -0.0401
     20 C          -0.0050    0.3960   -1.7700 C.ar    0  UNK0       -0.0479
     21 C           1.3300   -0.4970   -3.6710 C.2     0  UNK0        0.2447
     22 O           2.2580   -1.1760   -4.0650 O.2     0  UNK0       -0.2702
     23 N           0.5480    0.1530   -4.5550 N.am    1  GLU1       -0.2983
     24 CA          0.8160    0.0420   -5.9910 C.3     1  GLU1        0.1209
     25 CB         -0.4940    0.1810   -6.7670 C.3     1  GLU1       -0.0140
     26 CG         -1.4590   -0.9260   -6.3400 C.3     1  GLU1        0.0470
     27 CD         -2.7510   -0.7890   -7.1050 C.2     1  GLU1        0.3048
     28 OE1        -2.8860    0.1030   -7.9080 O.2     1  GLU1       -0.2510
     29 OE2        -3.7510   -1.6590   -6.8930 O.3     1  GLU1       -0.4806
     30 C           1.7660    1.1340   -6.4100 C.2     1  GLU1        0.3253
     31 O           2.5270    0.9520   -7.3310 O.2     1  GLU1       -0.2489
     32 OXT         1.7680    2.3090   -5.7610 O.3     1  GLU1       -0.4793
     33 H          -1.7520    1.0600    8.3810 H       0  UNK0        0.1701
     34 H           0.4360   -0.7220   10.4220 H       0  UNK0        0.1451
     35 H          -0.8970    0.2980   10.3910 H       0  UNK0        0.1451
     36 H          -2.5800    1.9850    3.9570 H       0  UNK0        0.0849
     37 H          -1.7500    0.3660    1.9160 H       0  UNK0        0.0527
     38 H          -0.6740    1.7820    2.0070 H       0  UNK0        0.0527
     39 H           0.8630   -0.5360    2.4900 H       0  UNK0        0.1465
     40 H           2.6950   -1.6630   -1.6550 H       0  UNK0        0.0626
     41 H           2.2420   -1.4730    0.7500 H       0  UNK0        0.0636
     42 H          -1.0810    1.0970   -0.0680 H       0  UNK0        0.0636
     43 H          -0.6330    0.9180   -2.4770 H       0  UNK0        0.0626
     44 H          -0.1910    0.6960   -4.2400 H       1  GLU1        0.1498
     45 HA          1.2620   -0.9280   -6.2030 H       1  GLU1        0.0614
     46 HB1        -0.9410    1.1530   -6.5540 H       1  GLU1        0.0294
     47 HB2        -0.2950    0.0990   -7.8350 H       1  GLU1        0.0294
     48 HG1        -1.0130   -1.8980   -6.5530 H       1  GLU1        0.0378
     49 HG2        -1.6590   -0.8430   -5.2720 H       1  GLU1        0.0378
     50 HE2        -4.5800   -1.5710   -7.3830 H       1  GLU1        0.2951
     51 HXT         2.3770    3.0090   -6.0300 H       1  GLU1        0.2951
@<TRIPOS>BOND
     1     1     2   ar
     2     1    12   ar
     3     1    33    1
     4     2     3    1
     5     2     4   ar
     6     3    34    1
     7     3    35    1
     8     4     5   ar
     9     5     6    2
    10     5     7   ar
    11     7     8   ar
    12     7    12   ar
    13     8     9   ar
    14     9    10   ar
    15     9    13    1
    16    10    11   ar
    17    10    36    1
    18    11    12   ar
    19    13    14    1
    20    13    37    1
    21    13    38    1
    22    14    18    1
    23    14    39    1
    24    15    16   ar
    25    15    20   ar
    26    15    21    1
    27    16    17   ar
    28    16    40    1
    29    17    18   ar
    30    17    41    1
    31    18    19   ar
    32    19    20   ar
    33    19    42    1
    34    20    43    1
    35    21    22    2
    36    21    23   am
    37    23    24    1
    38    23    44    1
    39    24    25    1
    40    24    30    1
    41    24    45    1
    42    25    26    1
    43    25    46    1
    44    25    47    1
    45    26    27    1
    46    26    48    1
    47    26    49    1
    48    27    28    2
    49    27    29    1
    50    29    50    1
    51    30    31    2
    52    30    32    1
    53    32    51    1
