@<TRIPOS>MOLECULE
NAP
 76 80 0 0 0
SMALL
GASTEIGER

@<TRIPOS>ATOM
      1 P          -0.0350   -0.9720    0.7190 P.3     1  UNL1        0.4804
      2 O           0.4900   -0.2560    1.9030 O.2     1  UNL1       -0.2270
      3 O          -0.7250   -2.3490    1.1870 O.3     1  UNL1       -0.3023
      4 O          -1.1260   -0.0510   -0.0260 O.3     1  UNL1       -0.2838
      5 C          -2.1090    0.2970    0.9520 C.3     1  UNL1        0.0879
      6 C          -3.1810    1.1770    0.3070 C.3     1  UNL1        0.1134
      7 O          -3.9200    0.4160   -0.6630 O.3     1  UNL1       -0.3456
      8 C          -4.1810    1.6550    1.3770 C.3     1  UNL1        0.1144
      9 O          -4.1960    3.0820    1.4560 O.3     1  UNL1       -0.3864
     10 C          -5.5500    1.1240    0.8760 C.3     1  UNL1        0.1433
     11 O          -6.5760    2.0990    1.0710 O.3     1  UNL1       -0.2762
     12 C          -5.2790    0.9010   -0.6330 C.3     1  UNL1        0.1675
     13 N          -6.1960   -0.1010   -1.1830 N.ar    1  UNL1       -0.2855
     14 C          -5.9780   -1.4450   -1.2490 C.ar    1  UNL1        0.1004
     15 N          -7.0000   -2.0360   -1.7950 N.ar    1  UNL1       -0.2306
     16 C          -7.9380   -1.1110   -2.1140 C.ar    1  UNL1        0.1473
     17 C          -9.2100   -1.1580   -2.7080 C.ar    1  UNL1        0.1472
     18 N          -9.7590   -2.3630   -3.1120 N.pl3   1  UNL1       -0.3413
     19 N          -9.8740   -0.0190   -2.8740 N.ar    1  UNL1       -0.2188
     20 C          -9.3580    1.1350   -2.4920 C.ar    1  UNL1        0.1205
     21 N          -8.1710    1.2270   -1.9310 N.ar    1  UNL1       -0.2159
     22 C          -7.4350    0.1410   -1.7200 C.ar    1  UNL1        0.1674
     23 O           1.1750   -1.2940   -0.2930 O.3     1  UNL1       -0.2292
     24 P           2.3900   -1.8580    0.5990 P.3     1  UNL1        0.2222
     25 O           2.1420   -3.3480    0.9250 O.2     1  UNL1       -0.5170
     26 O           2.4810   -1.0510    1.9140 O.co2   1  UNL1       -0.4370
     27 O           3.7700   -1.7100   -0.2180 O.3     1  UNL1       -0.3245
     28 C           4.8180   -2.1140    0.6650 C.3     1  UNL1        0.0838
     29 C           6.1640   -1.9970   -0.0530 C.3     1  UNL1        0.1176
     30 O           6.4660   -0.6130   -0.3320 O.3     1  UNL1       -0.3094
     31 C           7.3100   -2.4740    0.8660 C.3     1  UNL1        0.1184
     32 O           7.6700   -3.8220    0.5590 O.3     1  UNL1       -0.3862
     33 C           8.4780   -1.5130    0.5400 C.3     1  UNL1        0.1727
     34 O           9.5950   -2.2390    0.0250 O.3     1  UNL1       -0.3803
     35 C           7.8950   -0.5680   -0.5340 C.3     1  UNL1        0.2949
     36 N           8.3950    0.7950   -0.3410 N.ar    1  UNL1       -0.1731
     37 C           9.3640    1.2370   -1.1160 C.ar    1  UNL1        0.1859
     38 C           9.8690    2.5270   -0.9550 C.ar    1  UNL1        0.1000
     39 C          10.9610    3.0210   -1.8200 C.2     1  UNL1        0.2472
     40 O          11.4300    2.2990   -2.6780 O.2     1  UNL1       -0.2702
     41 N          11.4370    4.2720   -1.6580 N.am    1  UNL1       -0.3252
     42 C           9.3200    3.3490    0.0370 C.ar    1  UNL1       -0.0383
     43 C           8.3000    2.8400    0.8210 C.ar    1  UNL1        0.0029
     44 C           7.8590    1.5470    0.6010 C.ar    1  UNL1        0.1738
     45 P          -7.7650    1.3700    1.8750 P.3     1  UNL1        0.4728
     46 O          -7.2260    0.7740    3.1190 O.2     1  UNL1       -0.2275
     47 O          -8.9030    2.4470    2.2460 O.3     1  UNL1       -0.3026
     48 O          -8.4020    0.2110    0.9570 O.3     1  UNL1       -0.3026
     49 H          -1.0530   -2.7830    0.3870 H       1  UNL1        0.2220
     50 H          -2.5700   -0.6100    1.3430 H       1  UNL1        0.0592
     51 H          -1.6330    0.8430    1.7670 H       1  UNL1        0.0592
     52 H          -2.7140    2.0370   -0.1750 H       1  UNL1        0.0647
     53 H          -3.9360    1.2230    2.3470 H       1  UNL1        0.0648
     54 H          -3.3230    3.3530    1.7720 H       1  UNL1        0.2100
     55 H          -5.8090    0.1860    1.3680 H       1  UNL1        0.0674
     56 H          -5.3640    1.8390   -1.1820 H       1  UNL1        0.0867
     57 H          -5.0870   -1.9460   -0.8990 H       1  UNL1        0.1030
     58 H          -9.2650   -3.1870   -2.9850 H       1  UNL1        0.1438
     59 H         -10.6380   -2.3820   -3.5210 H       1  UNL1        0.1438
     60 H          -9.9320    2.0370   -2.6460 H       1  UNL1        0.1048
     61 H           4.6580   -3.1480    0.9700 H       1  UNL1        0.0591
     62 H           4.8190   -1.4720    1.5460 H       1  UNL1        0.0591
     63 H           6.1520   -2.5770   -0.9760 H       1  UNL1        0.0648
     64 H           7.0220   -2.3850    1.9130 H       1  UNL1        0.0649
     65 H           8.3870   -4.0640    1.1620 H       1  UNL1        0.2100
     66 H           8.7660   -0.9480    1.4270 H       1  UNL1        0.0716
     67 H           9.8740   -2.8520    0.7190 H       1  UNL1        0.2103
     68 H           8.1490   -0.9270   -1.5320 H       1  UNL1        0.1444
     69 H           9.7780    0.5910   -1.8760 H       1  UNL1        0.1385
     70 H          12.1530    4.5950   -2.2260 H       1  UNL1        0.1453
     71 H          11.0600    4.8490   -0.9760 H       1  UNL1        0.1453
     72 H           9.6840    4.3550    0.1870 H       1  UNL1        0.0629
     73 H           7.8530    3.4450    1.5960 H       1  UNL1        0.0677
     74 H           7.0630    1.1460    1.2110 H       1  UNL1        0.1377
     75 H          -9.5940    1.9700    2.7250 H       1  UNL1        0.2220
     76 H          -8.7400    0.6400    0.1600 H       1  UNL1        0.2220
@<TRIPOS>BOND
     1     1     2    2
     2     1     3    1
     3     1     4    1
     4     1    23    1
     5     3    49    1
     6     4     5    1
     7     5     6    1
     8     5    50    1
     9     5    51    1
    10     6     7    1
    11     6     8    1
    12     6    52    1
    13     7    12    1
    14     8     9    1
    15     8    10    1
    16     8    53    1
    17     9    54    1
    18    10    11    1
    19    10    12    1
    20    10    55    1
    21    11    45    1
    22    12    13    1
    23    12    56    1
    24    13    14   ar
    25    13    22   ar
    26    14    15   ar
    27    14    57    1
    28    15    16   ar
    29    16    17   ar
    30    16    22   ar
    31    17    18    1
    32    17    19   ar
    33    18    58    1
    34    18    59    1
    35    19    20   ar
    36    20    21   ar
    37    20    60    1
    38    21    22   ar
    39    23    24    1
    40    24    25    2
    41    24    26    1
    42    24    27    1
    43    27    28    1
    44    28    29    1
    45    28    61    1
    46    28    62    1
    47    29    30    1
    48    29    31    1
    49    29    63    1
    50    30    35    1
    51    31    32    1
    52    31    33    1
    53    31    64    1
    54    32    65    1
    55    33    34    1
    56    33    35    1
    57    33    66    1
    58    34    67    1
    59    35    36    1
    60    35    68    1
    61    36    37   ar
    62    36    44   ar
    63    37    38   ar
    64    37    69    1
    65    38    39    1
    66    38    42   ar
    67    39    40    2
    68    39    41   am
    69    41    70    1
    70    41    71    1
    71    42    43   ar
    72    42    72    1
    73    43    44   ar
    74    43    73    1
    75    44    74    1
    76    45    46    2
    77    45    47    1
    78    45    48    1
    79    47    75    1
    80    48    76    1
